
*** ChampSim Multicore Out-of-Order Simulator ***

Warmup Instructions: 0
Simulation Instructions: 10000000
Number of CPUs: 1
LLC sets: 2048
LLC ways: 16
Off-chip DRAM Size: 4096 MB Channels: 1 Width: 64-bit Data Rate: 3200 MT/s

CPU 0 runs /home/smriti/VMS/obj_trace.xz
CPU 0 Bimodal branch predictor

Warmup complete CPU 0 instructions: 2 cycles: 9 (Simulation time: 0 hr 0 min 0 sec) 

L1D access 1 set 27 way 0 miss 1 address 702778644347
L1D access 2 set 27 way 1 miss 2 address 702778644411
L1D access 3 set 27 way 2 miss 3 address 702778644475
L1D access 4 set 27 way 1 hit 1 address 702778644411
L1D access 5 set 27 way 2 hit 2 address 702778644475
L1D access 6 set 27 way 3 miss 4 address 702778644539
L1D access 7 set 27 way 3 hit 3 address 702778644539
L1D access 8 set 27 way 4 miss 5 address 702778644603
L1D access 9 set 27 way 4 hit 4 address 702778644603
L1D access 10 set 27 way 5 miss 6 address 702778644667
L1D access 11 set 27 way 5 hit 5 address 702778644667
L1D access 12 set 27 way 6 miss 7 address 702778644731
L1D access 13 set 27 way 7 miss 8 address 702778644795
L1D access 14 set 27 way 6 hit 6 address 702778644731
L1D access 15 set 27 way 7 hit 7 address 702778644795
L1D access 16 set 27 way 8 miss 9 address 702778644859
L1D access 17 set 27 way 8 hit 8 address 702778644859
L1D access 18 set 27 way 9 miss 10 address 702778644923
L1D access 19 set 27 way 9 hit 9 address 702778644923
L1D access 20 set 29 way 0 miss 11 address 702778644957
L1D access 21 set 27 way 0 hit 10 address 702778644347
L1D access 22 set 9 way 0 miss 12 address 702778644873
L1D access 23 set 9 way 0 hit 11 address 702778644873
L1D access 24 set 9 way 0 hit 12 address 702778644873
L1D access 25 set 9 way 0 hit 13 address 702778644873
L1D access 26 set 9 way 0 hit 14 address 702778644873
L1D access 27 set 9 way 0 hit 15 address 702778644873
L1D access 28 set 9 way 0 hit 16 address 702778644873
L1D access 29 set 9 way 0 hit 17 address 702778644873
L1D access 30 set 9 way 0 hit 18 address 702778644873
L1D access 31 set 9 way 0 hit 19 address 702778644873
L1D access 32 set 9 way 0 hit 20 address 702778644873
L1D access 33 set 9 way 0 hit 21 address 702778644873
L1D access 34 set 9 way 0 hit 22 address 702778644873
L1D access 35 set 9 way 0 hit 23 address 702778644873
L1D access 36 set 9 way 0 hit 24 address 702778644873
L1D access 37 set 9 way 0 hit 25 address 702778644873
L1D access 38 set 9 way 0 hit 26 address 702778644873
L1D access 39 set 9 way 0 hit 27 address 702778644873
L1D access 40 set 9 way 0 hit 28 address 702778644873
L1D access 41 set 9 way 0 hit 29 address 702778644873
L1D access 42 set 9 way 0 hit 30 address 702778644873
L1D access 43 set 9 way 0 hit 31 address 702778644873
L1D access 44 set 9 way 0 hit 32 address 702778644873
L1D access 45 set 9 way 0 hit 33 address 702778644873
L1D access 46 set 9 way 0 hit 34 address 702778644873
L1D access 47 set 9 way 0 hit 35 address 702778644873
L1D access 48 set 9 way 0 hit 36 address 702778644873
L1D access 49 set 9 way 0 hit 37 address 702778644873
L1D access 50 set 9 way 0 hit 38 address 702778644873
L1D access 51 set 9 way 0 hit 39 address 702778644873
L1D access 52 set 9 way 0 hit 40 address 702778644873
L1D access 53 set 9 way 0 hit 41 address 702778644873
L1D access 54 set 9 way 0 hit 42 address 702778644873
L1D access 55 set 9 way 0 hit 43 address 702778644873
L1D access 56 set 9 way 0 hit 44 address 702778644873
L1D access 57 set 9 way 0 hit 45 address 702778644873
L1D access 58 set 9 way 0 hit 46 address 702778644873
L1D access 59 set 9 way 0 hit 47 address 702778644873
L1D access 60 set 9 way 0 hit 48 address 702778644873
L1D access 61 set 9 way 0 hit 49 address 702778644873
L1D access 62 set 9 way 0 hit 50 address 702778644873
L1D access 63 set 9 way 0 hit 51 address 702778644873
L1D access 64 set 9 way 0 hit 52 address 702778644873
L1D access 65 set 9 way 0 hit 53 address 702778644873
L1D access 66 set 9 way 0 hit 54 address 702778644873
L1D access 67 set 9 way 0 hit 55 address 702778644873
L1D access 68 set 9 way 0 hit 56 address 702778644873
L1D access 69 set 9 way 0 hit 57 address 702778644873
L1D access 70 set 9 way 0 hit 58 address 702778644873
L1D access 71 set 9 way 0 hit 59 address 702778644873
L1D access 72 set 9 way 0 hit 60 address 702778644873
L1D access 73 set 9 way 0 hit 61 address 702778644873
L1D access 74 set 10 way 0 miss 13 address 702778644874
L1D access 75 set 9 way 0 hit 62 address 702778644873
L1D access 76 set 9 way 0 hit 63 address 702778644873
L1D access 77 set 9 way 0 hit 64 address 702778644873
L1D access 78 set 9 way 0 hit 65 address 702778644873
L1D access 79 set 9 way 0 hit 66 address 702778644873
L1D access 80 set 11 way 0 miss 14 address 702778644875
L1D access 81 set 9 way 0 hit 67 address 702778644873
L1D access 82 set 9 way 0 hit 68 address 702778644873
L1D access 83 set 9 way 0 hit 69 address 702778644873
L1D access 84 set 9 way 0 hit 70 address 702778644873
L1D access 85 set 9 way 0 hit 71 address 702778644873
L1D access 86 set 9 way 0 hit 72 address 702778644873
L1D access 87 set 9 way 0 hit 73 address 702778644873
L1D access 88 set 9 way 0 hit 74 address 702778644873
L1D access 89 set 9 way 0 hit 75 address 702778644873
L1D access 90 set 9 way 0 hit 76 address 702778644873
L1D access 91 set 9 way 0 hit 77 address 702778644873
L1D access 92 set 9 way 0 hit 78 address 702778644873
L1D access 93 set 9 way 0 hit 79 address 702778644873
L1D access 94 set 9 way 0 hit 80 address 702778644873
L1D access 95 set 9 way 0 hit 81 address 702778644873
L1D access 96 set 9 way 0 hit 82 address 702778644873
L1D access 97 set 9 way 0 hit 83 address 702778644873
L1D access 98 set 9 way 0 hit 84 address 702778644873
L1D access 99 set 9 way 0 hit 85 address 702778644873
L1D access 100 set 9 way 0 hit 86 address 702778644873
L1D access 101 set 9 way 0 hit 87 address 702778644873
L1D access 102 set 9 way 0 hit 88 address 702778644873
L1D access 103 set 9 way 0 hit 89 address 702778644873
L1D access 104 set 9 way 0 hit 90 address 702778644873
L1D access 105 set 9 way 0 hit 91 address 702778644873
L1D access 106 set 9 way 0 hit 92 address 702778644873
L1D access 107 set 9 way 0 hit 93 address 702778644873
L1D access 108 set 9 way 0 hit 94 address 702778644873
L1D access 109 set 9 way 0 hit 95 address 702778644873
L1D access 110 set 9 way 0 hit 96 address 702778644873
L1D access 111 set 9 way 0 hit 97 address 702778644873
L1D access 112 set 9 way 0 hit 98 address 702778644873
L1D access 113 set 9 way 0 hit 99 address 702778644873
L1D access 114 set 9 way 0 hit 100 address 702778644873
L1D access 115 set 9 way 0 hit 101 address 702778644873
L1D access 116 set 9 way 0 hit 102 address 702778644873
L1D access 117 set 9 way 0 hit 103 address 702778644873
L1D access 118 set 9 way 0 hit 104 address 702778644873
L1D access 119 set 9 way 0 hit 105 address 702778644873
L1D access 120 set 9 way 0 hit 106 address 702778644873
L1D access 121 set 9 way 0 hit 107 address 702778644873
L1D access 122 set 9 way 0 hit 108 address 702778644873
L1D access 123 set 9 way 0 hit 109 address 702778644873
L1D access 124 set 9 way 0 hit 110 address 702778644873
L1D access 125 set 13 way 0 miss 15 address 702778644877
L1D access 126 set 9 way 0 hit 111 address 702778644873
L1D access 127 set 12 way 0 miss 16 address 702778644876
L1D access 128 set 9 way 0 hit 112 address 702778644873
L1D access 129 set 9 way 0 hit 113 address 702778644873
L1D access 130 set 9 way 0 hit 114 address 702778644873
L1D access 131 set 9 way 0 hit 115 address 702778644873
L1D access 132 set 9 way 0 hit 116 address 702778644873
L1D access 133 set 9 way 0 hit 117 address 702778644873
L1D access 134 set 9 way 0 hit 118 address 702778644873
L1D access 135 set 9 way 0 hit 119 address 702778644873
L1D access 136 set 9 way 0 hit 120 address 702778644873
L1D access 137 set 9 way 0 hit 121 address 702778644873
L1D access 138 set 9 way 0 hit 122 address 702778644873
L1D access 139 set 9 way 0 hit 123 address 702778644873
L1D access 140 set 9 way 0 hit 124 address 702778644873
L1D access 141 set 9 way 0 hit 125 address 702778644873
L1D access 142 set 9 way 0 hit 126 address 702778644873
L1D access 143 set 9 way 0 hit 127 address 702778644873
L1D access 144 set 9 way 0 hit 128 address 702778644873
L1D access 145 set 9 way 0 hit 129 address 702778644873
L1D access 146 set 9 way 0 hit 130 address 702778644873
L1D access 147 set 9 way 0 hit 131 address 702778644873
L1D access 148 set 9 way 0 hit 132 address 702778644873
L1D access 149 set 9 way 0 hit 133 address 702778644873
L1D access 150 set 9 way 0 hit 134 address 702778644873
L1D access 151 set 9 way 0 hit 135 address 702778644873
L1D access 152 set 9 way 0 hit 136 address 702778644873
L1D access 153 set 9 way 0 hit 137 address 702778644873
L1D access 154 set 9 way 0 hit 138 address 702778644873
L1D access 155 set 9 way 0 hit 139 address 702778644873
L1D access 156 set 9 way 0 hit 140 address 702778644873
L1D access 157 set 9 way 0 hit 141 address 702778644873
L1D access 158 set 9 way 0 hit 142 address 702778644873
L1D access 159 set 9 way 0 hit 143 address 702778644873
L1D access 160 set 9 way 0 hit 144 address 702778644873
L1D access 161 set 9 way 0 hit 145 address 702778644873
L1D access 162 set 9 way 0 hit 146 address 702778644873
L1D access 163 set 9 way 0 hit 147 address 702778644873
L1D access 164 set 9 way 0 hit 148 address 702778644873
L1D access 165 set 9 way 0 hit 149 address 702778644873
L1D access 166 set 9 way 0 hit 150 address 702778644873
L1D access 167 set 9 way 0 hit 151 address 702778644873
L1D access 168 set 9 way 0 hit 152 address 702778644873
L1D access 169 set 9 way 0 hit 153 address 702778644873
L1D access 170 set 9 way 0 hit 154 address 702778644873
L1D access 171 set 14 way 0 miss 17 address 702778644878
L1D access 172 set 9 way 0 hit 155 address 702778644873
L1D access 173 set 9 way 0 hit 156 address 702778644873
L1D access 174 set 9 way 0 hit 157 address 702778644873
L1D access 175 set 9 way 0 hit 158 address 702778644873
L1D access 176 set 9 way 0 hit 159 address 702778644873
L1D access 177 set 9 way 0 hit 160 address 702778644873
L1D access 178 set 9 way 0 hit 161 address 702778644873
L1D access 179 set 9 way 0 hit 162 address 702778644873
L1D access 180 set 9 way 0 hit 163 address 702778644873
L1D access 181 set 9 way 0 hit 164 address 702778644873
L1D access 182 set 9 way 0 hit 165 address 702778644873
L1D access 183 set 9 way 0 hit 166 address 702778644873
L1D access 184 set 9 way 0 hit 167 address 702778644873
L1D access 185 set 9 way 0 hit 168 address 702778644873
L1D access 186 set 9 way 0 hit 169 address 702778644873
L1D access 187 set 9 way 0 hit 170 address 702778644873
L1D access 188 set 9 way 0 hit 171 address 702778644873
L1D access 189 set 9 way 0 hit 172 address 702778644873
L1D access 190 set 9 way 0 hit 173 address 702778644873
L1D access 191 set 15 way 0 miss 18 address 702778644879
L1D access 192 set 9 way 0 hit 174 address 702778644873
L1D access 193 set 9 way 0 hit 175 address 702778644873
L1D access 194 set 9 way 0 hit 176 address 702778644873
L1D access 195 set 9 way 0 hit 177 address 702778644873
L1D access 196 set 9 way 0 hit 178 address 702778644873
L1D access 197 set 9 way 0 hit 179 address 702778644873
L1D access 198 set 9 way 0 hit 180 address 702778644873
L1D access 199 set 9 way 0 hit 181 address 702778644873
L1D access 200 set 9 way 0 hit 182 address 702778644873
L1D access 201 set 9 way 0 hit 183 address 702778644873
L1D access 202 set 9 way 0 hit 184 address 702778644873
L1D access 203 set 9 way 0 hit 185 address 702778644873
L1D access 204 set 9 way 0 hit 186 address 702778644873
L1D access 205 set 9 way 0 hit 187 address 702778644873
L1D access 206 set 9 way 0 hit 188 address 702778644873
L1D access 207 set 9 way 0 hit 189 address 702778644873
L1D access 208 set 9 way 0 hit 190 address 702778644873
L1D access 209 set 9 way 0 hit 191 address 702778644873
L1D access 210 set 9 way 0 hit 192 address 702778644873
L1D access 211 set 9 way 0 hit 193 address 702778644873
L1D access 212 set 9 way 0 hit 194 address 702778644873
L1D access 213 set 9 way 0 hit 195 address 702778644873
L1D access 214 set 16 way 0 miss 19 address 702778644880
L1D access 215 set 9 way 0 hit 196 address 702778644873
L1D access 216 set 9 way 0 hit 197 address 702778644873
L1D access 217 set 9 way 0 hit 198 address 702778644873
L1D access 218 set 9 way 0 hit 199 address 702778644873
L1D access 219 set 9 way 0 hit 200 address 702778644873
L1D access 220 set 9 way 0 hit 201 address 702778644873
L1D access 221 set 9 way 0 hit 202 address 702778644873
L1D access 222 set 9 way 0 hit 203 address 702778644873
L1D access 223 set 9 way 0 hit 204 address 702778644873
L1D access 224 set 9 way 0 hit 205 address 702778644873
L1D access 225 set 9 way 0 hit 206 address 702778644873
L1D access 226 set 17 way 0 miss 20 address 702778644881
L1D access 227 set 9 way 0 hit 207 address 702778644873
L1D access 228 set 9 way 0 hit 208 address 702778644873
L1D access 229 set 9 way 0 hit 209 address 702778644873
L1D access 230 set 9 way 0 hit 210 address 702778644873
L1D access 231 set 9 way 0 hit 211 address 702778644873
L1D access 232 set 9 way 0 hit 212 address 702778644873
L1D access 233 set 9 way 0 hit 213 address 702778644873
L1D access 234 set 9 way 0 hit 214 address 702778644873
L1D access 235 set 9 way 0 hit 215 address 702778644873
L1D access 236 set 9 way 0 hit 216 address 702778644873
L1D access 237 set 9 way 0 hit 217 address 702778644873
L1D access 238 set 9 way 0 hit 218 address 702778644873
L1D access 239 set 9 way 0 hit 219 address 702778644873
L1D access 240 set 9 way 0 hit 220 address 702778644873
L1D access 241 set 9 way 0 hit 221 address 702778644873
L1D access 242 set 9 way 0 hit 222 address 702778644873
L1D access 243 set 9 way 0 hit 223 address 702778644873
L1D access 244 set 9 way 0 hit 224 address 702778644873
L1D access 245 set 9 way 0 hit 225 address 702778644873
L1D access 246 set 9 way 0 hit 226 address 702778644873
L1D access 247 set 9 way 0 hit 227 address 702778644873
L1D access 248 set 9 way 0 hit 228 address 702778644873
L1D access 249 set 9 way 0 hit 229 address 702778644873
L1D access 250 set 18 way 0 miss 21 address 702778644882
L1D access 251 set 9 way 0 hit 230 address 702778644873
L1D access 252 set 9 way 0 hit 231 address 702778644873
L1D access 253 set 9 way 0 hit 232 address 702778644873
L1D access 254 set 9 way 0 hit 233 address 702778644873
L1D access 255 set 9 way 0 hit 234 address 702778644873
L1D access 256 set 9 way 0 hit 235 address 702778644873
L1D access 257 set 9 way 0 hit 236 address 702778644873
L1D access 258 set 9 way 0 hit 237 address 702778644873
L1D access 259 set 9 way 0 hit 238 address 702778644873
L1D access 260 set 9 way 0 hit 239 address 702778644873
L1D access 261 set 9 way 0 hit 240 address 702778644873
L1D access 262 set 9 way 0 hit 241 address 702778644873
L1D access 263 set 9 way 0 hit 242 address 702778644873
L1D access 264 set 9 way 0 hit 243 address 702778644873
L1D access 265 set 9 way 0 hit 244 address 702778644873
L1D access 266 set 9 way 0 hit 245 address 702778644873
L1D access 267 set 9 way 0 hit 246 address 702778644873
L1D access 268 set 9 way 0 hit 247 address 702778644873
L1D access 269 set 9 way 0 hit 248 address 702778644873
L1D access 270 set 9 way 0 hit 249 address 702778644873
L1D access 271 set 9 way 0 hit 250 address 702778644873
L1D access 272 set 19 way 0 miss 22 address 702778644883
L1D access 273 set 9 way 0 hit 251 address 702778644873
L1D access 274 set 9 way 0 hit 252 address 702778644873
L1D access 275 set 9 way 0 hit 253 address 702778644873
L1D access 276 set 9 way 0 hit 254 address 702778644873
L1D access 277 set 9 way 0 hit 255 address 702778644873
L1D access 278 set 9 way 0 hit 256 address 702778644873
L1D access 279 set 9 way 0 hit 257 address 702778644873
L1D access 280 set 9 way 0 hit 258 address 702778644873
L1D access 281 set 9 way 0 hit 259 address 702778644873
L1D access 282 set 9 way 0 hit 260 address 702778644873
L1D access 283 set 9 way 0 hit 261 address 702778644873
L1D access 284 set 9 way 0 hit 262 address 702778644873
L1D access 285 set 9 way 0 hit 263 address 702778644873
L1D access 286 set 9 way 0 hit 264 address 702778644873
L1D access 287 set 9 way 0 hit 265 address 702778644873
L1D access 288 set 9 way 0 hit 266 address 702778644873
L1D access 289 set 9 way 0 hit 267 address 702778644873
L1D access 290 set 9 way 0 hit 268 address 702778644873
L1D access 291 set 9 way 0 hit 269 address 702778644873
L1D access 292 set 9 way 0 hit 270 address 702778644873
L1D access 293 set 9 way 0 hit 271 address 702778644873
L1D access 294 set 9 way 0 hit 272 address 702778644873
L1D access 295 set 9 way 0 hit 273 address 702778644873
L1D access 296 set 9 way 0 hit 274 address 702778644873
L1D access 297 set 9 way 0 hit 275 address 702778644873
L1D access 298 set 9 way 0 hit 276 address 702778644873
L1D access 299 set 20 way 0 miss 23 address 702778644884
L1D access 300 set 9 way 0 hit 277 address 702778644873
L1D access 301 set 9 way 0 hit 278 address 702778644873
L1D access 302 set 9 way 0 hit 279 address 702778644873
L1D access 303 set 9 way 0 hit 280 address 702778644873
L1D access 304 set 9 way 0 hit 281 address 702778644873
L1D access 305 set 9 way 0 hit 282 address 702778644873
L1D access 306 set 9 way 0 hit 283 address 702778644873
L1D access 307 set 9 way 0 hit 284 address 702778644873
L1D access 308 set 9 way 0 hit 285 address 702778644873
L1D access 309 set 9 way 0 hit 286 address 702778644873
L1D access 310 set 9 way 0 hit 287 address 702778644873
L1D access 311 set 9 way 0 hit 288 address 702778644873
L1D access 312 set 9 way 0 hit 289 address 702778644873
L1D access 313 set 9 way 0 hit 290 address 702778644873
L1D access 314 set 9 way 0 hit 291 address 702778644873
L1D access 315 set 9 way 0 hit 292 address 702778644873
L1D access 316 set 9 way 0 hit 293 address 702778644873
L1D access 317 set 9 way 0 hit 294 address 702778644873
L1D access 318 set 9 way 0 hit 295 address 702778644873
L1D access 319 set 9 way 0 hit 296 address 702778644873
L1D access 320 set 9 way 0 hit 297 address 702778644873
L1D access 321 set 9 way 0 hit 298 address 702778644873
L1D access 322 set 21 way 0 miss 24 address 702778644885
L1D access 323 set 9 way 0 hit 299 address 702778644873
L1D access 324 set 9 way 0 hit 300 address 702778644873
L1D access 325 set 9 way 0 hit 301 address 702778644873
L1D access 326 set 9 way 0 hit 302 address 702778644873
L1D access 327 set 9 way 0 hit 303 address 702778644873
L1D access 328 set 9 way 0 hit 304 address 702778644873
L1D access 329 set 9 way 0 hit 305 address 702778644873
L1D access 330 set 9 way 0 hit 306 address 702778644873
L1D access 331 set 9 way 0 hit 307 address 702778644873
L1D access 332 set 9 way 0 hit 308 address 702778644873
L1D access 333 set 9 way 0 hit 309 address 702778644873
L1D access 334 set 9 way 0 hit 310 address 702778644873
L1D access 335 set 9 way 0 hit 311 address 702778644873
L1D access 336 set 9 way 0 hit 312 address 702778644873
L1D access 337 set 9 way 0 hit 313 address 702778644873
L1D access 338 set 9 way 0 hit 314 address 702778644873
L1D access 339 set 9 way 0 hit 315 address 702778644873
L1D access 340 set 9 way 0 hit 316 address 702778644873
L1D access 341 set 9 way 0 hit 317 address 702778644873
L1D access 342 set 22 way 0 miss 25 address 702778644886
L1D access 343 set 9 way 0 hit 318 address 702778644873
L1D access 344 set 9 way 0 hit 319 address 702778644873
L1D access 345 set 22 way 0 hit 320 address 702778644886
L1D access 346 set 9 way 0 hit 321 address 702778644873
L1D access 347 set 9 way 0 hit 322 address 702778644873
L1D access 348 set 9 way 0 hit 323 address 702778644873
L1D access 349 set 9 way 0 hit 324 address 702778644873
L1D access 350 set 9 way 0 hit 325 address 702778644873
L1D access 351 set 9 way 0 hit 326 address 702778644873
L1D access 352 set 9 way 0 hit 327 address 702778644873
L1D access 353 set 9 way 0 hit 328 address 702778644873
L1D access 354 set 9 way 0 hit 329 address 702778644873
L1D access 355 set 9 way 0 hit 330 address 702778644873
L1D access 356 set 9 way 0 hit 331 address 702778644873
L1D access 357 set 9 way 0 hit 332 address 702778644873
L1D access 358 set 9 way 0 hit 333 address 702778644873
L1D access 359 set 9 way 0 hit 334 address 702778644873
L1D access 360 set 9 way 0 hit 335 address 702778644873
L1D access 361 set 9 way 0 hit 336 address 702778644873
L1D access 362 set 9 way 0 hit 337 address 702778644873
L1D access 363 set 9 way 0 hit 338 address 702778644873
L1D access 364 set 9 way 0 hit 339 address 702778644873
L1D access 365 set 9 way 0 hit 340 address 702778644873
L1D access 366 set 9 way 0 hit 341 address 702778644873
L1D access 367 set 9 way 0 hit 342 address 702778644873
L1D access 368 set 9 way 0 hit 343 address 702778644873
L1D access 369 set 9 way 0 hit 344 address 702778644873
L1D access 370 set 9 way 0 hit 345 address 702778644873
L1D access 371 set 9 way 0 hit 346 address 702778644873
L1D access 372 set 9 way 0 hit 347 address 702778644873
L1D access 373 set 9 way 0 hit 348 address 702778644873
L1D access 374 set 9 way 0 hit 349 address 702778644873
L1D access 375 set 9 way 0 hit 350 address 702778644873
L1D access 376 set 23 way 0 miss 26 address 702778644887
L1D access 377 set 9 way 0 hit 351 address 702778644873
L1D access 378 set 9 way 0 hit 352 address 702778644873
L1D access 379 set 9 way 0 hit 353 address 702778644873
L1D access 380 set 9 way 0 hit 354 address 702778644873
L1D access 381 set 9 way 0 hit 355 address 702778644873
L1D access 382 set 9 way 0 hit 356 address 702778644873
L1D access 383 set 9 way 0 hit 357 address 702778644873
L1D access 384 set 9 way 0 hit 358 address 702778644873
L1D access 385 set 9 way 0 hit 359 address 702778644873
L1D access 386 set 9 way 0 hit 360 address 702778644873
L1D access 387 set 9 way 0 hit 361 address 702778644873
L1D access 388 set 9 way 0 hit 362 address 702778644873
L1D access 389 set 9 way 0 hit 363 address 702778644873
L1D access 390 set 9 way 0 hit 364 address 702778644873
L1D access 391 set 9 way 0 hit 365 address 702778644873
L1D access 392 set 9 way 0 hit 366 address 702778644873
L1D access 393 set 9 way 0 hit 367 address 702778644873
L1D access 394 set 9 way 0 hit 368 address 702778644873
L1D access 395 set 9 way 0 hit 369 address 702778644873
L1D access 396 set 9 way 0 hit 370 address 702778644873
L1D access 397 set 9 way 0 hit 371 address 702778644873
L1D access 398 set 9 way 0 hit 372 address 702778644873
L1D access 399 set 24 way 0 miss 27 address 702778644888
L1D access 400 set 9 way 0 hit 373 address 702778644873
L1D access 401 set 9 way 0 hit 374 address 702778644873
L1D access 402 set 9 way 0 hit 375 address 702778644873
L1D access 403 set 9 way 0 hit 376 address 702778644873
L1D access 404 set 9 way 0 hit 377 address 702778644873
L1D access 405 set 9 way 0 hit 378 address 702778644873
L1D access 406 set 9 way 0 hit 379 address 702778644873
L1D access 407 set 9 way 0 hit 380 address 702778644873
L1D access 408 set 9 way 0 hit 381 address 702778644873
L1D access 409 set 9 way 0 hit 382 address 702778644873
L1D access 410 set 9 way 0 hit 383 address 702778644873
L1D access 411 set 9 way 0 hit 384 address 702778644873
L1D access 412 set 9 way 0 hit 385 address 702778644873
L1D access 413 set 9 way 0 hit 386 address 702778644873
L1D access 414 set 9 way 0 hit 387 address 702778644873
L1D access 415 set 9 way 0 hit 388 address 702778644873
L1D access 416 set 9 way 0 hit 389 address 702778644873
L1D access 417 set 9 way 0 hit 390 address 702778644873
L1D access 418 set 9 way 0 hit 391 address 702778644873
L1D access 419 set 9 way 0 hit 392 address 702778644873
L1D access 420 set 9 way 0 hit 393 address 702778644873
L1D access 421 set 9 way 0 hit 394 address 702778644873
L1D access 422 set 25 way 0 miss 28 address 702778644889
L1D access 423 set 9 way 0 hit 395 address 702778644873
L1D access 424 set 9 way 0 hit 396 address 702778644873
L1D access 425 set 9 way 0 hit 397 address 702778644873
L1D access 426 set 9 way 0 hit 398 address 702778644873
L1D access 427 set 9 way 0 hit 399 address 702778644873
L1D access 428 set 9 way 0 hit 400 address 702778644873
L1D access 429 set 9 way 0 hit 401 address 702778644873
L1D access 430 set 9 way 0 hit 402 address 702778644873
L1D access 431 set 9 way 0 hit 403 address 702778644873
L1D access 432 set 9 way 0 hit 404 address 702778644873
L1D access 433 set 9 way 0 hit 405 address 702778644873
L1D access 434 set 9 way 0 hit 406 address 702778644873
L1D access 435 set 9 way 0 hit 407 address 702778644873
L1D access 436 set 9 way 0 hit 408 address 702778644873
L1D access 437 set 9 way 0 hit 409 address 702778644873
L1D access 438 set 9 way 0 hit 410 address 702778644873
L1D access 439 set 9 way 0 hit 411 address 702778644873
L1D access 440 set 9 way 0 hit 412 address 702778644873
L1D access 441 set 9 way 0 hit 413 address 702778644873
L1D access 442 set 9 way 0 hit 414 address 702778644873
L1D access 443 set 9 way 0 hit 415 address 702778644873
L1D access 444 set 9 way 0 hit 416 address 702778644873
L1D access 445 set 9 way 0 hit 417 address 702778644873
L1D access 446 set 26 way 0 miss 29 address 702778644890
L1D access 447 set 9 way 0 hit 418 address 702778644873
L1D access 448 set 9 way 0 hit 419 address 702778644873
L1D access 449 set 9 way 0 hit 420 address 702778644873
L1D access 450 set 9 way 0 hit 421 address 702778644873
L1D access 451 set 9 way 0 hit 422 address 702778644873
L1D access 452 set 9 way 0 hit 423 address 702778644873
L1D access 453 set 9 way 0 hit 424 address 702778644873
L1D access 454 set 9 way 0 hit 425 address 702778644873
L1D access 455 set 9 way 0 hit 426 address 702778644873
L1D access 456 set 9 way 0 hit 427 address 702778644873
L1D access 457 set 9 way 0 hit 428 address 702778644873
L1D access 458 set 9 way 0 hit 429 address 702778644873
L1D access 459 set 9 way 0 hit 430 address 702778644873
L1D access 460 set 9 way 0 hit 431 address 702778644873
L1D access 461 set 9 way 0 hit 432 address 702778644873
L1D access 462 set 9 way 0 hit 433 address 702778644873
L1D access 463 set 9 way 0 hit 434 address 702778644873
L1D access 464 set 9 way 0 hit 435 address 702778644873
L1D access 465 set 9 way 0 hit 436 address 702778644873
L1D access 466 set 9 way 0 hit 437 address 702778644873
L1D access 467 set 9 way 0 hit 438 address 702778644873
L1D access 468 set 9 way 0 hit 439 address 702778644873
L1D access 469 set 9 way 0 hit 440 address 702778644873
L1D access 470 set 27 way 10 miss 30 address 702778644891
L1D access 471 set 9 way 0 hit 441 address 702778644873
L1D access 472 set 9 way 0 hit 442 address 702778644873
L1D access 473 set 9 way 0 hit 443 address 702778644873
L1D access 474 set 9 way 0 hit 444 address 702778644873
L1D access 475 set 9 way 0 hit 445 address 702778644873
L1D access 476 set 9 way 0 hit 446 address 702778644873
L1D access 477 set 9 way 0 hit 447 address 702778644873
L1D access 478 set 9 way 0 hit 448 address 702778644873
L1D access 479 set 9 way 0 hit 449 address 702778644873
L1D access 480 set 9 way 0 hit 450 address 702778644873
L1D access 481 set 9 way 0 hit 451 address 702778644873
L1D access 482 set 9 way 0 hit 452 address 702778644873
L1D access 483 set 9 way 0 hit 453 address 702778644873
L1D access 484 set 9 way 0 hit 454 address 702778644873
L1D access 485 set 9 way 0 hit 455 address 702778644873
L1D access 486 set 9 way 0 hit 456 address 702778644873
L1D access 487 set 9 way 0 hit 457 address 702778644873
L1D access 488 set 9 way 0 hit 458 address 702778644873
L1D access 489 set 9 way 0 hit 459 address 702778644873
L1D access 490 set 9 way 0 hit 460 address 702778644873
L1D access 491 set 28 way 0 miss 31 address 702778644892
L1D access 492 set 28 way 0 hit 461 address 702778644892
L1D access 493 set 9 way 0 hit 462 address 702778644873
L1D access 494 set 9 way 0 hit 463 address 702778644873
L1D access 495 set 9 way 0 hit 464 address 702778644873
L1D access 496 set 9 way 0 hit 465 address 702778644873
L1D access 497 set 9 way 0 hit 466 address 702778644873
L1D access 498 set 9 way 0 hit 467 address 702778644873
L1D access 499 set 9 way 0 hit 468 address 702778644873
L1D access 500 set 9 way 0 hit 469 address 702778644873
L1D access 501 set 9 way 0 hit 470 address 702778644873
L1D access 502 set 9 way 0 hit 471 address 702778644873
L1D access 503 set 9 way 0 hit 472 address 702778644873
L1D access 504 set 9 way 0 hit 473 address 702778644873
L1D access 505 set 9 way 0 hit 474 address 702778644873
L1D access 506 set 9 way 0 hit 475 address 702778644873
L1D access 507 set 9 way 0 hit 476 address 702778644873
L1D access 508 set 9 way 0 hit 477 address 702778644873
L1D access 509 set 9 way 0 hit 478 address 702778644873
L1D access 510 set 9 way 0 hit 479 address 702778644873
L1D access 511 set 9 way 0 hit 480 address 702778644873
L1D access 512 set 9 way 0 hit 481 address 702778644873
L1D access 513 set 9 way 0 hit 482 address 702778644873
L1D access 514 set 9 way 0 hit 483 address 702778644873
L1D access 515 set 9 way 0 hit 484 address 702778644873
L1D access 516 set 9 way 0 hit 485 address 702778644873
L1D access 517 set 9 way 0 hit 486 address 702778644873
L1D access 518 set 9 way 0 hit 487 address 702778644873
L1D access 519 set 9 way 0 hit 488 address 702778644873
L1D access 520 set 9 way 0 hit 489 address 702778644873
L1D access 521 set 9 way 0 hit 490 address 702778644873
L1D access 522 set 29 way 1 miss 32 address 702778644893
L1D access 523 set 9 way 0 hit 491 address 702778644873
L1D access 524 set 9 way 0 hit 492 address 702778644873
L1D access 525 set 9 way 0 hit 493 address 702778644873
L1D access 526 set 9 way 0 hit 494 address 702778644873
L1D access 527 set 9 way 0 hit 495 address 702778644873
L1D access 528 set 9 way 0 hit 496 address 702778644873
L1D access 529 set 9 way 0 hit 497 address 702778644873
L1D access 530 set 9 way 0 hit 498 address 702778644873
L1D access 531 set 9 way 0 hit 499 address 702778644873
L1D access 532 set 9 way 0 hit 500 address 702778644873
L1D access 533 set 9 way 0 hit 501 address 702778644873
L1D access 534 set 9 way 0 hit 502 address 702778644873
L1D access 535 set 9 way 0 hit 503 address 702778644873
L1D access 536 set 9 way 0 hit 504 address 702778644873
L1D access 537 set 9 way 0 hit 505 address 702778644873
L1D access 538 set 9 way 0 hit 506 address 702778644873
L1D access 539 set 9 way 0 hit 507 address 702778644873
L1D access 540 set 9 way 0 hit 508 address 702778644873
L1D access 541 set 9 way 0 hit 509 address 702778644873
L1D access 542 set 9 way 0 hit 510 address 702778644873
L1D access 543 set 9 way 0 hit 511 address 702778644873
L1D access 544 set 9 way 0 hit 512 address 702778644873
L1D access 545 set 9 way 0 hit 513 address 702778644873
L1D access 546 set 9 way 0 hit 514 address 702778644873
L1D access 547 set 30 way 0 miss 33 address 702778644894
L1D access 548 set 9 way 0 hit 515 address 702778644873
L1D access 549 set 9 way 0 hit 516 address 702778644873
L1D access 550 set 9 way 0 hit 517 address 702778644873
L1D access 551 set 9 way 0 hit 518 address 702778644873
L1D access 552 set 9 way 0 hit 519 address 702778644873
L1D access 553 set 9 way 0 hit 520 address 702778644873
L1D access 554 set 9 way 0 hit 521 address 702778644873
L1D access 555 set 9 way 0 hit 522 address 702778644873
L1D access 556 set 9 way 0 hit 523 address 702778644873
L1D access 557 set 9 way 0 hit 524 address 702778644873
L1D access 558 set 9 way 0 hit 525 address 702778644873
L1D access 559 set 9 way 0 hit 526 address 702778644873
L1D access 560 set 9 way 0 hit 527 address 702778644873
L1D access 561 set 9 way 0 hit 528 address 702778644873
L1D access 562 set 9 way 0 hit 529 address 702778644873
L1D access 563 set 9 way 0 hit 530 address 702778644873
L1D access 564 set 9 way 0 hit 531 address 702778644873
L1D access 565 set 9 way 0 hit 532 address 702778644873
L1D access 566 set 9 way 0 hit 533 address 702778644873
L1D access 567 set 9 way 0 hit 534 address 702778644873
L1D access 568 set 9 way 0 hit 535 address 702778644873
L1D access 569 set 9 way 0 hit 536 address 702778644873
L1D access 570 set 31 way 0 miss 34 address 702778644895
L1D access 571 set 9 way 0 hit 537 address 702778644873
L1D access 572 set 9 way 0 hit 538 address 702778644873
L1D access 573 set 9 way 0 hit 539 address 702778644873
L1D access 574 set 9 way 0 hit 540 address 702778644873
L1D access 575 set 9 way 0 hit 541 address 702778644873
L1D access 576 set 9 way 0 hit 542 address 702778644873
L1D access 577 set 9 way 0 hit 543 address 702778644873
L1D access 578 set 9 way 0 hit 544 address 702778644873
L1D access 579 set 9 way 0 hit 545 address 702778644873
L1D access 580 set 9 way 0 hit 546 address 702778644873
L1D access 581 set 9 way 0 hit 547 address 702778644873
L1D access 582 set 9 way 0 hit 548 address 702778644873
L1D access 583 set 9 way 0 hit 549 address 702778644873
L1D access 584 set 9 way 0 hit 550 address 702778644873
L1D access 585 set 9 way 0 hit 551 address 702778644873
L1D access 586 set 9 way 0 hit 552 address 702778644873
L1D access 587 set 9 way 0 hit 553 address 702778644873
L1D access 588 set 9 way 0 hit 554 address 702778644873
L1D access 589 set 9 way 0 hit 555 address 702778644873
L1D access 590 set 9 way 0 hit 556 address 702778644873
L1D access 591 set 9 way 0 hit 557 address 702778644873
L1D access 592 set 9 way 0 hit 558 address 702778644873
L1D access 593 set 9 way 0 hit 559 address 702778644873
L1D access 594 set 0 way 0 miss 35 address 702778644896
L1D access 595 set 9 way 0 hit 560 address 702778644873
L1D access 596 set 9 way 0 hit 561 address 702778644873
L1D access 597 set 9 way 0 hit 562 address 702778644873
L1D access 598 set 9 way 0 hit 563 address 702778644873
L1D access 599 set 9 way 0 hit 564 address 702778644873
L1D access 600 set 9 way 0 hit 565 address 702778644873
L1D access 601 set 9 way 0 hit 566 address 702778644873
L1D access 602 set 9 way 0 hit 567 address 702778644873
L1D access 603 set 9 way 0 hit 568 address 702778644873
L1D access 604 set 9 way 0 hit 569 address 702778644873
L1D access 605 set 9 way 0 hit 570 address 702778644873
L1D access 606 set 9 way 0 hit 571 address 702778644873
L1D access 607 set 9 way 0 hit 572 address 702778644873
L1D access 608 set 9 way 0 hit 573 address 702778644873
L1D access 609 set 9 way 0 hit 574 address 702778644873
L1D access 610 set 9 way 0 hit 575 address 702778644873
L1D access 611 set 9 way 0 hit 576 address 702778644873
L1D access 612 set 9 way 0 hit 577 address 702778644873
L1D access 613 set 9 way 0 hit 578 address 702778644873
L1D access 614 set 9 way 0 hit 579 address 702778644873
L1D access 615 set 9 way 0 hit 580 address 702778644873
L1D access 616 set 9 way 0 hit 581 address 702778644873
L1D access 617 set 9 way 0 hit 582 address 702778644873
L1D access 618 set 9 way 0 hit 583 address 702778644873
L1D access 619 set 1 way 0 miss 36 address 702778644897
L1D access 620 set 9 way 0 hit 584 address 702778644873
L1D access 621 set 9 way 0 hit 585 address 702778644873
L1D access 622 set 9 way 0 hit 586 address 702778644873
L1D access 623 set 9 way 0 hit 587 address 702778644873
L1D access 624 set 9 way 0 hit 588 address 702778644873
L1D access 625 set 9 way 0 hit 589 address 702778644873
L1D access 626 set 9 way 0 hit 590 address 702778644873
L1D access 627 set 9 way 0 hit 591 address 702778644873
L1D access 628 set 9 way 0 hit 592 address 702778644873
L1D access 629 set 9 way 0 hit 593 address 702778644873
L1D access 630 set 9 way 0 hit 594 address 702778644873
L1D access 631 set 9 way 0 hit 595 address 702778644873
L1D access 632 set 9 way 0 hit 596 address 702778644873
L1D access 633 set 9 way 0 hit 597 address 702778644873
L1D access 634 set 9 way 0 hit 598 address 702778644873
L1D access 635 set 2 way 0 miss 37 address 702778644898
L1D access 636 set 9 way 0 hit 599 address 702778644873
L1D access 637 set 9 way 0 hit 600 address 702778644873
L1D access 638 set 9 way 0 hit 601 address 702778644873
L1D access 639 set 9 way 0 hit 602 address 702778644873
L1D access 640 set 9 way 0 hit 603 address 702778644873
L1D access 641 set 9 way 0 hit 604 address 702778644873
L1D access 642 set 9 way 0 hit 605 address 702778644873
L1D access 643 set 9 way 0 hit 606 address 702778644873
L1D access 644 set 9 way 0 hit 607 address 702778644873
L1D access 645 set 9 way 0 hit 608 address 702778644873
L1D access 646 set 9 way 0 hit 609 address 702778644873
L1D access 647 set 9 way 0 hit 610 address 702778644873
L1D access 648 set 9 way 0 hit 611 address 702778644873
L1D access 649 set 9 way 0 hit 612 address 702778644873
L1D access 650 set 9 way 0 hit 613 address 702778644873
L1D access 651 set 9 way 0 hit 614 address 702778644873
L1D access 652 set 9 way 0 hit 615 address 702778644873
L1D access 653 set 9 way 0 hit 616 address 702778644873
L1D access 654 set 9 way 0 hit 617 address 702778644873
L1D access 655 set 9 way 0 hit 618 address 702778644873
L1D access 656 set 9 way 0 hit 619 address 702778644873
L1D access 657 set 9 way 0 hit 620 address 702778644873
L1D access 658 set 9 way 0 hit 621 address 702778644873
L1D access 659 set 9 way 0 hit 622 address 702778644873
L1D access 660 set 9 way 0 hit 623 address 702778644873
L1D access 661 set 9 way 0 hit 624 address 702778644873
L1D access 662 set 3 way 0 miss 38 address 702778644899
L1D access 663 set 9 way 0 hit 625 address 702778644873
L1D access 664 set 9 way 0 hit 626 address 702778644873
L1D access 665 set 9 way 0 hit 627 address 702778644873
L1D access 666 set 9 way 0 hit 628 address 702778644873
L1D access 667 set 9 way 0 hit 629 address 702778644873
L1D access 668 set 9 way 0 hit 630 address 702778644873
L1D access 669 set 9 way 0 hit 631 address 702778644873
L1D access 670 set 9 way 0 hit 632 address 702778644873
L1D access 671 set 9 way 0 hit 633 address 702778644873
L1D access 672 set 9 way 0 hit 634 address 702778644873
L1D access 673 set 9 way 0 hit 635 address 702778644873
L1D access 674 set 9 way 0 hit 636 address 702778644873
L1D access 675 set 9 way 0 hit 637 address 702778644873
L1D access 676 set 9 way 0 hit 638 address 702778644873
L1D access 677 set 9 way 0 hit 639 address 702778644873
L1D access 678 set 9 way 0 hit 640 address 702778644873
L1D access 679 set 9 way 0 hit 641 address 702778644873
L1D access 680 set 9 way 0 hit 642 address 702778644873
L1D access 681 set 9 way 0 hit 643 address 702778644873
L1D access 682 set 9 way 0 hit 644 address 702778644873
L1D access 683 set 9 way 0 hit 645 address 702778644873
L1D access 684 set 9 way 0 hit 646 address 702778644873
L1D access 685 set 9 way 0 hit 647 address 702778644873
L1D access 686 set 9 way 0 hit 648 address 702778644873
L1D access 687 set 9 way 0 hit 649 address 702778644873
L1D access 688 set 9 way 0 hit 650 address 702778644873
L1D access 689 set 9 way 0 hit 651 address 702778644873
L1D access 690 set 4 way 0 miss 39 address 702778644900
L1D access 691 set 9 way 0 hit 652 address 702778644873
L1D access 692 set 9 way 0 hit 653 address 702778644873
L1D access 693 set 9 way 0 hit 654 address 702778644873
L1D access 694 set 9 way 0 hit 655 address 702778644873
L1D access 695 set 9 way 0 hit 656 address 702778644873
L1D access 696 set 9 way 0 hit 657 address 702778644873
L1D access 697 set 9 way 0 hit 658 address 702778644873
L1D access 698 set 9 way 0 hit 659 address 702778644873
L1D access 699 set 9 way 0 hit 660 address 702778644873
L1D access 700 set 9 way 0 hit 661 address 702778644873
L1D access 701 set 9 way 0 hit 662 address 702778644873
L1D access 702 set 9 way 0 hit 663 address 702778644873
L1D access 703 set 9 way 0 hit 664 address 702778644873
L1D access 704 set 9 way 0 hit 665 address 702778644873
L1D access 705 set 9 way 0 hit 666 address 702778644873
L1D access 706 set 9 way 0 hit 667 address 702778644873
L1D access 707 set 9 way 0 hit 668 address 702778644873
L1D access 708 set 9 way 0 hit 669 address 702778644873
L1D access 709 set 9 way 0 hit 670 address 702778644873
L1D access 710 set 9 way 0 hit 671 address 702778644873
L1D access 711 set 9 way 0 hit 672 address 702778644873
L1D access 712 set 9 way 0 hit 673 address 702778644873
L1D access 713 set 5 way 0 miss 40 address 702778644901
L1D access 714 set 9 way 0 hit 674 address 702778644873
L1D access 715 set 9 way 0 hit 675 address 702778644873
L1D access 716 set 9 way 0 hit 676 address 702778644873
L1D access 717 set 9 way 0 hit 677 address 702778644873
L1D access 718 set 9 way 0 hit 678 address 702778644873
L1D access 719 set 9 way 0 hit 679 address 702778644873
L1D access 720 set 9 way 0 hit 680 address 702778644873
L1D access 721 set 9 way 0 hit 681 address 702778644873
L1D access 722 set 9 way 0 hit 682 address 702778644873
L1D access 723 set 9 way 0 hit 683 address 702778644873
L1D access 724 set 9 way 0 hit 684 address 702778644873
L1D access 725 set 9 way 0 hit 685 address 702778644873
L1D access 726 set 9 way 0 hit 686 address 702778644873
L1D access 727 set 9 way 0 hit 687 address 702778644873
L1D access 728 set 9 way 0 hit 688 address 702778644873
L1D access 729 set 9 way 0 hit 689 address 702778644873
L1D access 730 set 9 way 0 hit 690 address 702778644873
L1D access 731 set 9 way 0 hit 691 address 702778644873
L1D access 732 set 9 way 0 hit 692 address 702778644873
L1D access 733 set 9 way 0 hit 693 address 702778644873
L1D access 734 set 9 way 0 hit 694 address 702778644873
L1D access 735 set 6 way 0 miss 41 address 702778644902
L1D access 736 set 9 way 0 hit 695 address 702778644873
L1D access 737 set 9 way 0 hit 696 address 702778644873
L1D access 738 set 9 way 0 hit 697 address 702778644873
L1D access 739 set 9 way 0 hit 698 address 702778644873
L1D access 740 set 9 way 0 hit 699 address 702778644873
L1D access 741 set 9 way 0 hit 700 address 702778644873
L1D access 742 set 9 way 0 hit 701 address 702778644873
L1D access 743 set 9 way 0 hit 702 address 702778644873
L1D access 744 set 9 way 0 hit 703 address 702778644873
L1D access 745 set 9 way 0 hit 704 address 702778644873
L1D access 746 set 9 way 0 hit 705 address 702778644873
L1D access 747 set 9 way 0 hit 706 address 702778644873
L1D access 748 set 9 way 0 hit 707 address 702778644873
L1D access 749 set 9 way 0 hit 708 address 702778644873
L1D access 750 set 9 way 0 hit 709 address 702778644873
L1D access 751 set 9 way 0 hit 710 address 702778644873
L1D access 752 set 9 way 0 hit 711 address 702778644873
L1D access 753 set 9 way 0 hit 712 address 702778644873
L1D access 754 set 9 way 0 hit 713 address 702778644873
L1D access 755 set 9 way 0 hit 714 address 702778644873
L1D access 756 set 9 way 0 hit 715 address 702778644873
L1D access 757 set 9 way 0 hit 716 address 702778644873
L1D access 758 set 9 way 0 hit 717 address 702778644873
L1D access 759 set 9 way 0 hit 718 address 702778644873
L1D access 760 set 9 way 0 hit 719 address 702778644873
L1D access 761 set 9 way 0 hit 720 address 702778644873
L1D access 762 set 9 way 0 hit 721 address 702778644873
L1D access 763 set 9 way 0 hit 722 address 702778644873
L1D access 764 set 7 way 0 miss 42 address 702778644903
L1D access 765 set 9 way 0 hit 723 address 702778644873
L1D access 766 set 9 way 0 hit 724 address 702778644873
L1D access 767 set 9 way 0 hit 725 address 702778644873
L1D access 768 set 9 way 0 hit 726 address 702778644873
L1D access 769 set 9 way 0 hit 727 address 702778644873
L1D access 770 set 9 way 0 hit 728 address 702778644873
L1D access 771 set 9 way 0 hit 729 address 702778644873
L1D access 772 set 9 way 0 hit 730 address 702778644873
L1D access 773 set 9 way 0 hit 731 address 702778644873
L1D access 774 set 9 way 0 hit 732 address 702778644873
L1D access 775 set 9 way 0 hit 733 address 702778644873
L1D access 776 set 9 way 0 hit 734 address 702778644873
L1D access 777 set 9 way 0 hit 735 address 702778644873
L1D access 778 set 9 way 0 hit 736 address 702778644873
L1D access 779 set 9 way 0 hit 737 address 702778644873
L1D access 780 set 9 way 0 hit 738 address 702778644873
L1D access 781 set 9 way 0 hit 739 address 702778644873
L1D access 782 set 9 way 0 hit 740 address 702778644873
L1D access 783 set 8 way 0 miss 43 address 702778644904
L1D access 784 set 9 way 0 hit 741 address 702778644873
L1D access 785 set 9 way 0 hit 742 address 702778644873
L1D access 786 set 9 way 0 hit 743 address 702778644873
L1D access 787 set 9 way 0 hit 744 address 702778644873
L1D access 788 set 9 way 0 hit 745 address 702778644873
L1D access 789 set 9 way 0 hit 746 address 702778644873
L1D access 790 set 9 way 0 hit 747 address 702778644873
L1D access 791 set 9 way 0 hit 748 address 702778644873
L1D access 792 set 9 way 0 hit 749 address 702778644873
L1D access 793 set 9 way 0 hit 750 address 702778644873
L1D access 794 set 9 way 0 hit 751 address 702778644873
L1D access 795 set 9 way 0 hit 752 address 702778644873
L1D access 796 set 9 way 0 hit 753 address 702778644873
L1D access 797 set 9 way 0 hit 754 address 702778644873
L1D access 798 set 9 way 0 hit 755 address 702778644873
L1D access 799 set 9 way 0 hit 756 address 702778644873
L1D access 800 set 9 way 0 hit 757 address 702778644873
L1D access 801 set 9 way 0 hit 758 address 702778644873
L1D access 802 set 9 way 0 hit 759 address 702778644873
L1D access 803 set 9 way 0 hit 760 address 702778644873
L1D access 804 set 9 way 1 miss 44 address 702778644905
L1D access 805 set 9 way 1 hit 761 address 702778644905
L1D access 806 set 9 way 0 hit 762 address 702778644873
L1D access 807 set 9 way 0 hit 763 address 702778644873
L1D access 808 set 9 way 1 hit 764 address 702778644905
L1D access 809 set 9 way 0 hit 765 address 702778644873
L1D access 810 set 9 way 0 hit 766 address 702778644873
L1D access 811 set 9 way 0 hit 767 address 702778644873
L1D access 812 set 9 way 0 hit 768 address 702778644873
L1D access 813 set 9 way 0 hit 769 address 702778644873
L1D access 814 set 9 way 0 hit 770 address 702778644873
L1D access 815 set 9 way 0 hit 771 address 702778644873
L1D access 816 set 9 way 0 hit 772 address 702778644873
L1D access 817 set 9 way 0 hit 773 address 702778644873
L1D access 818 set 9 way 0 hit 774 address 702778644873
L1D access 819 set 9 way 0 hit 775 address 702778644873
L1D access 820 set 9 way 0 hit 776 address 702778644873
L1D access 821 set 9 way 0 hit 777 address 702778644873
L1D access 822 set 9 way 0 hit 778 address 702778644873
L1D access 823 set 9 way 0 hit 779 address 702778644873
L1D access 824 set 9 way 0 hit 780 address 702778644873
L1D access 825 set 9 way 0 hit 781 address 702778644873
L1D access 826 set 9 way 0 hit 782 address 702778644873
L1D access 827 set 9 way 0 hit 783 address 702778644873
L1D access 828 set 9 way 0 hit 784 address 702778644873
L1D access 829 set 9 way 0 hit 785 address 702778644873
L1D access 830 set 9 way 0 hit 786 address 702778644873
L1D access 831 set 9 way 0 hit 787 address 702778644873
L1D access 832 set 9 way 0 hit 788 address 702778644873
L1D access 833 set 9 way 0 hit 789 address 702778644873
L1D access 834 set 9 way 0 hit 790 address 702778644873
L1D access 835 set 9 way 0 hit 791 address 702778644873
L1D access 836 set 9 way 0 hit 792 address 702778644873
L1D access 837 set 9 way 0 hit 793 address 702778644873
L1D access 838 set 9 way 0 hit 794 address 702778644873
L1D access 839 set 10 way 1 miss 45 address 702778644906
L1D access 840 set 9 way 0 hit 795 address 702778644873
L1D access 841 set 9 way 0 hit 796 address 702778644873
L1D access 842 set 9 way 0 hit 797 address 702778644873
L1D access 843 set 9 way 0 hit 798 address 702778644873
L1D access 844 set 9 way 0 hit 799 address 702778644873
L1D access 845 set 9 way 0 hit 800 address 702778644873
L1D access 846 set 9 way 0 hit 801 address 702778644873
L1D access 847 set 9 way 0 hit 802 address 702778644873
L1D access 848 set 9 way 0 hit 803 address 702778644873
L1D access 849 set 9 way 0 hit 804 address 702778644873
L1D access 850 set 9 way 0 hit 805 address 702778644873
L1D access 851 set 9 way 0 hit 806 address 702778644873
L1D access 852 set 9 way 0 hit 807 address 702778644873
L1D access 853 set 9 way 0 hit 808 address 702778644873
L1D access 854 set 9 way 0 hit 809 address 702778644873
L1D access 855 set 9 way 0 hit 810 address 702778644873
L1D access 856 set 9 way 0 hit 811 address 702778644873
L1D access 857 set 9 way 0 hit 812 address 702778644873
L1D access 858 set 9 way 0 hit 813 address 702778644873
L1D access 859 set 9 way 0 hit 814 address 702778644873
L1D access 860 set 11 way 1 miss 46 address 702778644907
L1D access 861 set 9 way 0 hit 815 address 702778644873
L1D access 862 set 9 way 0 hit 816 address 702778644873
L1D access 863 set 9 way 0 hit 817 address 702778644873
L1D access 864 set 9 way 0 hit 818 address 702778644873
L1D access 865 set 9 way 0 hit 819 address 702778644873
L1D access 866 set 9 way 0 hit 820 address 702778644873
L1D access 867 set 9 way 0 hit 821 address 702778644873
L1D access 868 set 9 way 0 hit 822 address 702778644873
L1D access 869 set 9 way 0 hit 823 address 702778644873
L1D access 870 set 9 way 0 hit 824 address 702778644873
L1D access 871 set 9 way 0 hit 825 address 702778644873
L1D access 872 set 9 way 0 hit 826 address 702778644873
L1D access 873 set 9 way 0 hit 827 address 702778644873
L1D access 874 set 9 way 0 hit 828 address 702778644873
L1D access 875 set 9 way 0 hit 829 address 702778644873
L1D access 876 set 9 way 0 hit 830 address 702778644873
L1D access 877 set 9 way 0 hit 831 address 702778644873
L1D access 878 set 9 way 0 hit 832 address 702778644873
L1D access 879 set 9 way 0 hit 833 address 702778644873
L1D access 880 set 9 way 0 hit 834 address 702778644873
L1D access 881 set 9 way 0 hit 835 address 702778644873
L1D access 882 set 9 way 0 hit 836 address 702778644873
L1D access 883 set 9 way 0 hit 837 address 702778644873
L1D access 884 set 12 way 1 miss 47 address 702778644908
L1D access 885 set 9 way 0 hit 838 address 702778644873
L1D access 886 set 9 way 0 hit 839 address 702778644873
L1D access 887 set 9 way 0 hit 840 address 702778644873
L1D access 888 set 9 way 0 hit 841 address 702778644873
L1D access 889 set 9 way 0 hit 842 address 702778644873
L1D access 890 set 9 way 0 hit 843 address 702778644873
L1D access 891 set 9 way 0 hit 844 address 702778644873
L1D access 892 set 9 way 0 hit 845 address 702778644873
L1D access 893 set 9 way 0 hit 846 address 702778644873
L1D access 894 set 9 way 0 hit 847 address 702778644873
L1D access 895 set 9 way 0 hit 848 address 702778644873
L1D access 896 set 9 way 0 hit 849 address 702778644873
L1D access 897 set 9 way 0 hit 850 address 702778644873
L1D access 898 set 9 way 0 hit 851 address 702778644873
L1D access 899 set 9 way 0 hit 852 address 702778644873
L1D access 900 set 9 way 0 hit 853 address 702778644873
L1D access 901 set 9 way 0 hit 854 address 702778644873
L1D access 902 set 9 way 0 hit 855 address 702778644873
L1D access 903 set 9 way 0 hit 856 address 702778644873
L1D access 904 set 9 way 0 hit 857 address 702778644873
L1D access 905 set 9 way 0 hit 858 address 702778644873
L1D access 906 set 9 way 0 hit 859 address 702778644873
L1D access 907 set 9 way 0 hit 860 address 702778644873
L1D access 908 set 13 way 1 miss 48 address 702778644909
L1D access 909 set 9 way 0 hit 861 address 702778644873
L1D access 910 set 9 way 0 hit 862 address 702778644873
L1D access 911 set 9 way 0 hit 863 address 702778644873
L1D access 912 set 9 way 0 hit 864 address 702778644873
L1D access 913 set 9 way 0 hit 865 address 702778644873
L1D access 914 set 9 way 0 hit 866 address 702778644873
L1D access 915 set 9 way 0 hit 867 address 702778644873
L1D access 916 set 9 way 0 hit 868 address 702778644873
L1D access 917 set 9 way 0 hit 869 address 702778644873
L1D access 918 set 9 way 0 hit 870 address 702778644873
L1D access 919 set 9 way 0 hit 871 address 702778644873
L1D access 920 set 9 way 0 hit 872 address 702778644873
L1D access 921 set 9 way 0 hit 873 address 702778644873
L1D access 922 set 9 way 0 hit 874 address 702778644873
L1D access 923 set 9 way 0 hit 875 address 702778644873
L1D access 924 set 9 way 0 hit 876 address 702778644873
L1D access 925 set 9 way 0 hit 877 address 702778644873
L1D access 926 set 9 way 0 hit 878 address 702778644873
L1D access 927 set 9 way 0 hit 879 address 702778644873
L1D access 928 set 9 way 0 hit 880 address 702778644873
L1D access 929 set 9 way 0 hit 881 address 702778644873
L1D access 930 set 9 way 0 hit 882 address 702778644873
L1D access 931 set 9 way 0 hit 883 address 702778644873
L1D access 932 set 9 way 0 hit 884 address 702778644873
L1D access 933 set 14 way 1 miss 49 address 702778644910
L1D access 934 set 9 way 0 hit 885 address 702778644873
L1D access 935 set 9 way 0 hit 886 address 702778644873
L1D access 936 set 9 way 0 hit 887 address 702778644873
L1D access 937 set 9 way 0 hit 888 address 702778644873
L1D access 938 set 9 way 0 hit 889 address 702778644873
L1D access 939 set 9 way 0 hit 890 address 702778644873
L1D access 940 set 9 way 0 hit 891 address 702778644873
L1D access 941 set 9 way 0 hit 892 address 702778644873
L1D access 942 set 9 way 0 hit 893 address 702778644873
L1D access 943 set 9 way 0 hit 894 address 702778644873
L1D access 944 set 9 way 0 hit 895 address 702778644873
L1D access 945 set 9 way 0 hit 896 address 702778644873
L1D access 946 set 9 way 0 hit 897 address 702778644873
L1D access 947 set 9 way 0 hit 898 address 702778644873
L1D access 948 set 9 way 0 hit 899 address 702778644873
L1D access 949 set 9 way 0 hit 900 address 702778644873
L1D access 950 set 9 way 0 hit 901 address 702778644873
L1D access 951 set 9 way 0 hit 902 address 702778644873
L1D access 952 set 15 way 1 miss 50 address 702778644911
L1D access 953 set 15 way 1 hit 903 address 702778644911
L1D access 954 set 15 way 1 hit 904 address 702778644911
L1D access 955 set 9 way 0 hit 905 address 702778644873
L1D access 956 set 9 way 0 hit 906 address 702778644873
L1D access 957 set 15 way 1 hit 907 address 702778644911
L1D access 958 set 9 way 0 hit 908 address 702778644873
L1D access 959 set 9 way 0 hit 909 address 702778644873
L1D access 960 set 9 way 0 hit 910 address 702778644873
L1D access 961 set 9 way 0 hit 911 address 702778644873
L1D access 962 set 9 way 0 hit 912 address 702778644873
L1D access 963 set 9 way 0 hit 913 address 702778644873
L1D access 964 set 9 way 0 hit 914 address 702778644873
L1D access 965 set 9 way 0 hit 915 address 702778644873
L1D access 966 set 9 way 0 hit 916 address 702778644873
L1D access 967 set 9 way 0 hit 917 address 702778644873
L1D access 968 set 9 way 0 hit 918 address 702778644873
L1D access 969 set 9 way 0 hit 919 address 702778644873
L1D access 970 set 9 way 0 hit 920 address 702778644873
L1D access 971 set 9 way 0 hit 921 address 702778644873
L1D access 972 set 9 way 0 hit 922 address 702778644873
L1D access 973 set 9 way 0 hit 923 address 702778644873
L1D access 974 set 9 way 0 hit 924 address 702778644873
L1D access 975 set 9 way 0 hit 925 address 702778644873
L1D access 976 set 9 way 0 hit 926 address 702778644873
L1D access 977 set 9 way 0 hit 927 address 702778644873
L1D access 978 set 9 way 0 hit 928 address 702778644873
L1D access 979 set 9 way 0 hit 929 address 702778644873
L1D access 980 set 9 way 0 hit 930 address 702778644873
L1D access 981 set 9 way 0 hit 931 address 702778644873
L1D access 982 set 9 way 0 hit 932 address 702778644873
L1D access 983 set 9 way 0 hit 933 address 702778644873
L1D access 984 set 9 way 0 hit 934 address 702778644873
L1D access 985 set 9 way 0 hit 935 address 702778644873
L1D access 986 set 16 way 1 miss 51 address 702778644912
L1D access 987 set 9 way 0 hit 936 address 702778644873
L1D access 988 set 9 way 0 hit 937 address 702778644873
L1D access 989 set 9 way 0 hit 938 address 702778644873
L1D access 990 set 9 way 0 hit 939 address 702778644873
L1D access 991 set 9 way 0 hit 940 address 702778644873
L1D access 992 set 9 way 0 hit 941 address 702778644873
L1D access 993 set 9 way 0 hit 942 address 702778644873
L1D access 994 set 9 way 0 hit 943 address 702778644873
L1D access 995 set 9 way 0 hit 944 address 702778644873
L1D access 996 set 9 way 0 hit 945 address 702778644873
L1D access 997 set 9 way 0 hit 946 address 702778644873
L1D access 998 set 9 way 0 hit 947 address 702778644873
L1D access 999 set 9 way 0 hit 948 address 702778644873
L1D access 1000 set 9 way 0 hit 949 address 702778644873
L1D access 1001 set 9 way 0 hit 950 address 702778644873
L1D access 1002 set 9 way 0 hit 951 address 702778644873
L1D access 1003 set 9 way 0 hit 952 address 702778644873
L1D access 1004 set 9 way 0 hit 953 address 702778644873
L1D access 1005 set 9 way 0 hit 954 address 702778644873
L1D access 1006 set 9 way 0 hit 955 address 702778644873
L1D access 1007 set 9 way 0 hit 956 address 702778644873
L1D access 1008 set 9 way 0 hit 957 address 702778644873
L1D access 1009 set 9 way 0 hit 958 address 702778644873
L1D access 1010 set 9 way 0 hit 959 address 702778644873
L1D access 1011 set 17 way 1 miss 52 address 702778644913
L1D access 1012 set 9 way 0 hit 960 address 702778644873
L1D access 1013 set 9 way 0 hit 961 address 702778644873
L1D access 1014 set 9 way 0 hit 962 address 702778644873
L1D access 1015 set 9 way 0 hit 963 address 702778644873
L1D access 1016 set 9 way 0 hit 964 address 702778644873
L1D access 1017 set 9 way 0 hit 965 address 702778644873
L1D access 1018 set 9 way 0 hit 966 address 702778644873
L1D access 1019 set 9 way 0 hit 967 address 702778644873
L1D access 1020 set 9 way 0 hit 968 address 702778644873
L1D access 1021 set 9 way 0 hit 969 address 702778644873
L1D access 1022 set 9 way 0 hit 970 address 702778644873
L1D access 1023 set 9 way 0 hit 971 address 702778644873
L1D access 1024 set 9 way 0 hit 972 address 702778644873
L1D access 1025 set 9 way 0 hit 973 address 702778644873
L1D access 1026 set 9 way 0 hit 974 address 702778644873
L1D access 1027 set 9 way 0 hit 975 address 702778644873
L1D access 1028 set 9 way 0 hit 976 address 702778644873
L1D access 1029 set 9 way 0 hit 977 address 702778644873
L1D access 1030 set 9 way 0 hit 978 address 702778644873
L1D access 1031 set 9 way 0 hit 979 address 702778644873
L1D access 1032 set 9 way 0 hit 980 address 702778644873
L1D access 1033 set 9 way 0 hit 981 address 702778644873
L1D access 1034 set 9 way 0 hit 982 address 702778644873
L1D access 1035 set 18 way 1 miss 53 address 702778644914
L1D access 1036 set 9 way 0 hit 983 address 702778644873
L1D access 1037 set 9 way 0 hit 984 address 702778644873
L1D access 1038 set 9 way 0 hit 985 address 702778644873
L1D access 1039 set 9 way 0 hit 986 address 702778644873
L1D access 1040 set 9 way 0 hit 987 address 702778644873
L1D access 1041 set 9 way 0 hit 988 address 702778644873
L1D access 1042 set 9 way 0 hit 989 address 702778644873
L1D access 1043 set 9 way 0 hit 990 address 702778644873
L1D access 1044 set 9 way 0 hit 991 address 702778644873
L1D access 1045 set 9 way 0 hit 992 address 702778644873
L1D access 1046 set 9 way 0 hit 993 address 702778644873
L1D access 1047 set 9 way 0 hit 994 address 702778644873
L1D access 1048 set 9 way 0 hit 995 address 702778644873
L1D access 1049 set 9 way 0 hit 996 address 702778644873
L1D access 1050 set 9 way 0 hit 997 address 702778644873
L1D access 1051 set 9 way 0 hit 998 address 702778644873
L1D access 1052 set 9 way 0 hit 999 address 702778644873
L1D access 1053 set 9 way 0 hit 1000 address 702778644873
L1D access 1054 set 9 way 0 hit 1001 address 702778644873
L1D access 1055 set 9 way 0 hit 1002 address 702778644873
L1D access 1056 set 9 way 0 hit 1003 address 702778644873
L1D access 1057 set 9 way 0 hit 1004 address 702778644873
L1D access 1058 set 9 way 0 hit 1005 address 702778644873
L1D access 1059 set 19 way 1 miss 54 address 702778644915
L1D access 1060 set 9 way 0 hit 1006 address 702778644873
L1D access 1061 set 9 way 0 hit 1007 address 702778644873
L1D access 1062 set 9 way 0 hit 1008 address 702778644873
L1D access 1063 set 9 way 0 hit 1009 address 702778644873
L1D access 1064 set 9 way 0 hit 1010 address 702778644873
L1D access 1065 set 9 way 0 hit 1011 address 702778644873
L1D access 1066 set 9 way 0 hit 1012 address 702778644873
L1D access 1067 set 9 way 0 hit 1013 address 702778644873
L1D access 1068 set 9 way 0 hit 1014 address 702778644873
L1D access 1069 set 9 way 0 hit 1015 address 702778644873
L1D access 1070 set 9 way 0 hit 1016 address 702778644873
L1D access 1071 set 9 way 0 hit 1017 address 702778644873
L1D access 1072 set 9 way 0 hit 1018 address 702778644873
L1D access 1073 set 9 way 0 hit 1019 address 702778644873
L1D access 1074 set 9 way 0 hit 1020 address 702778644873
L1D access 1075 set 9 way 0 hit 1021 address 702778644873
L1D access 1076 set 9 way 0 hit 1022 address 702778644873
L1D access 1077 set 9 way 0 hit 1023 address 702778644873
L1D access 1078 set 9 way 0 hit 1024 address 702778644873
L1D access 1079 set 9 way 0 hit 1025 address 702778644873
L1D access 1080 set 9 way 0 hit 1026 address 702778644873
L1D access 1081 set 9 way 0 hit 1027 address 702778644873
L1D access 1082 set 9 way 0 hit 1028 address 702778644873
L1D access 1083 set 9 way 0 hit 1029 address 702778644873
L1D access 1084 set 20 way 1 miss 55 address 702778644916
L1D access 1085 set 9 way 0 hit 1030 address 702778644873
L1D access 1086 set 9 way 0 hit 1031 address 702778644873
L1D access 1087 set 9 way 0 hit 1032 address 702778644873
L1D access 1088 set 9 way 0 hit 1033 address 702778644873
L1D access 1089 set 9 way 0 hit 1034 address 702778644873
L1D access 1090 set 9 way 0 hit 1035 address 702778644873
L1D access 1091 set 9 way 0 hit 1036 address 702778644873
L1D access 1092 set 9 way 0 hit 1037 address 702778644873
L1D access 1093 set 9 way 0 hit 1038 address 702778644873
L1D access 1094 set 9 way 0 hit 1039 address 702778644873
L1D access 1095 set 9 way 0 hit 1040 address 702778644873
L1D access 1096 set 9 way 0 hit 1041 address 702778644873
L1D access 1097 set 9 way 0 hit 1042 address 702778644873
L1D access 1098 set 9 way 0 hit 1043 address 702778644873
L1D access 1099 set 9 way 0 hit 1044 address 702778644873
L1D access 1100 set 9 way 0 hit 1045 address 702778644873
L1D access 1101 set 9 way 0 hit 1046 address 702778644873
L1D access 1102 set 21 way 1 miss 56 address 702778644917
L1D access 1103 set 9 way 0 hit 1047 address 702778644873
L1D access 1104 set 21 way 1 hit 1048 address 702778644917
L1D access 1105 set 9 way 0 hit 1049 address 702778644873
L1D access 1106 set 21 way 1 hit 1050 address 702778644917
L1D access 1107 set 9 way 0 hit 1051 address 702778644873
L1D access 1108 set 9 way 0 hit 1052 address 702778644873
L1D access 1109 set 9 way 0 hit 1053 address 702778644873
L1D access 1110 set 9 way 0 hit 1054 address 702778644873
L1D access 1111 set 9 way 0 hit 1055 address 702778644873
L1D access 1112 set 9 way 0 hit 1056 address 702778644873
L1D access 1113 set 9 way 0 hit 1057 address 702778644873
L1D access 1114 set 9 way 0 hit 1058 address 702778644873
L1D access 1115 set 9 way 0 hit 1059 address 702778644873
L1D access 1116 set 9 way 0 hit 1060 address 702778644873
L1D access 1117 set 9 way 0 hit 1061 address 702778644873
L1D access 1118 set 9 way 0 hit 1062 address 702778644873
L1D access 1119 set 9 way 0 hit 1063 address 702778644873
L1D access 1120 set 9 way 0 hit 1064 address 702778644873
L1D access 1121 set 9 way 0 hit 1065 address 702778644873
L1D access 1122 set 9 way 0 hit 1066 address 702778644873
L1D access 1123 set 9 way 0 hit 1067 address 702778644873
L1D access 1124 set 9 way 0 hit 1068 address 702778644873
L1D access 1125 set 9 way 0 hit 1069 address 702778644873
L1D access 1126 set 9 way 0 hit 1070 address 702778644873
L1D access 1127 set 9 way 0 hit 1071 address 702778644873
L1D access 1128 set 9 way 0 hit 1072 address 702778644873
L1D access 1129 set 9 way 0 hit 1073 address 702778644873
L1D access 1130 set 9 way 0 hit 1074 address 702778644873
L1D access 1131 set 9 way 0 hit 1075 address 702778644873
L1D access 1132 set 9 way 0 hit 1076 address 702778644873
L1D access 1133 set 9 way 0 hit 1077 address 702778644873
L1D access 1134 set 9 way 0 hit 1078 address 702778644873
L1D access 1135 set 22 way 1 miss 57 address 702778644918
L1D access 1136 set 9 way 0 hit 1079 address 702778644873
L1D access 1137 set 9 way 0 hit 1080 address 702778644873
L1D access 1138 set 9 way 0 hit 1081 address 702778644873
L1D access 1139 set 9 way 0 hit 1082 address 702778644873
L1D access 1140 set 9 way 0 hit 1083 address 702778644873
L1D access 1141 set 9 way 0 hit 1084 address 702778644873
L1D access 1142 set 9 way 0 hit 1085 address 702778644873
L1D access 1143 set 9 way 0 hit 1086 address 702778644873
L1D access 1144 set 9 way 0 hit 1087 address 702778644873
L1D access 1145 set 9 way 0 hit 1088 address 702778644873
L1D access 1146 set 9 way 0 hit 1089 address 702778644873
L1D access 1147 set 9 way 0 hit 1090 address 702778644873
L1D access 1148 set 9 way 0 hit 1091 address 702778644873
L1D access 1149 set 9 way 0 hit 1092 address 702778644873
L1D access 1150 set 9 way 0 hit 1093 address 702778644873
L1D access 1151 set 9 way 0 hit 1094 address 702778644873
L1D access 1152 set 9 way 0 hit 1095 address 702778644873
L1D access 1153 set 9 way 0 hit 1096 address 702778644873
L1D access 1154 set 9 way 0 hit 1097 address 702778644873
L1D access 1155 set 9 way 0 hit 1098 address 702778644873
L1D access 1156 set 9 way 0 hit 1099 address 702778644873
L1D access 1157 set 9 way 0 hit 1100 address 702778644873
L1D access 1158 set 9 way 0 hit 1101 address 702778644873
L1D access 1159 set 9 way 0 hit 1102 address 702778644873
L1D access 1160 set 9 way 0 hit 1103 address 702778644873
L1D access 1161 set 23 way 1 miss 58 address 702778644919
L1D access 1162 set 9 way 0 hit 1104 address 702778644873
L1D access 1163 set 9 way 0 hit 1105 address 702778644873
L1D access 1164 set 9 way 0 hit 1106 address 702778644873
L1D access 1165 set 9 way 0 hit 1107 address 702778644873
L1D access 1166 set 9 way 0 hit 1108 address 702778644873
L1D access 1167 set 9 way 0 hit 1109 address 702778644873
L1D access 1168 set 9 way 0 hit 1110 address 702778644873
L1D access 1169 set 9 way 0 hit 1111 address 702778644873
L1D access 1170 set 9 way 0 hit 1112 address 702778644873
L1D access 1171 set 9 way 0 hit 1113 address 702778644873
L1D access 1172 set 9 way 0 hit 1114 address 702778644873
L1D access 1173 set 9 way 0 hit 1115 address 702778644873
L1D access 1174 set 9 way 0 hit 1116 address 702778644873
L1D access 1175 set 9 way 0 hit 1117 address 702778644873
L1D access 1176 set 9 way 0 hit 1118 address 702778644873
L1D access 1177 set 9 way 0 hit 1119 address 702778644873
L1D access 1178 set 9 way 0 hit 1120 address 702778644873
L1D access 1179 set 9 way 0 hit 1121 address 702778644873
L1D access 1180 set 9 way 0 hit 1122 address 702778644873
L1D access 1181 set 9 way 0 hit 1123 address 702778644873
L1D access 1182 set 9 way 0 hit 1124 address 702778644873
L1D access 1183 set 24 way 1 miss 59 address 702778644920
L1D access 1184 set 9 way 0 hit 1125 address 702778644873
L1D access 1185 set 9 way 0 hit 1126 address 702778644873
L1D access 1186 set 9 way 0 hit 1127 address 702778644873
L1D access 1187 set 9 way 0 hit 1128 address 702778644873
L1D access 1188 set 9 way 0 hit 1129 address 702778644873
L1D access 1189 set 9 way 0 hit 1130 address 702778644873
L1D access 1190 set 9 way 0 hit 1131 address 702778644873
L1D access 1191 set 9 way 0 hit 1132 address 702778644873
L1D access 1192 set 9 way 0 hit 1133 address 702778644873
L1D access 1193 set 9 way 0 hit 1134 address 702778644873
L1D access 1194 set 9 way 0 hit 1135 address 702778644873
L1D access 1195 set 9 way 0 hit 1136 address 702778644873
L1D access 1196 set 9 way 0 hit 1137 address 702778644873
L1D access 1197 set 9 way 0 hit 1138 address 702778644873
L1D access 1198 set 9 way 0 hit 1139 address 702778644873
L1D access 1199 set 9 way 0 hit 1140 address 702778644873
L1D access 1200 set 9 way 0 hit 1141 address 702778644873
L1D access 1201 set 9 way 0 hit 1142 address 702778644873
L1D access 1202 set 9 way 0 hit 1143 address 702778644873
L1D access 1203 set 9 way 0 hit 1144 address 702778644873
L1D access 1204 set 9 way 0 hit 1145 address 702778644873
L1D access 1205 set 9 way 0 hit 1146 address 702778644873
L1D access 1206 set 25 way 1 miss 60 address 702778644921
L1D access 1207 set 9 way 0 hit 1147 address 702778644873
L1D access 1208 set 9 way 0 hit 1148 address 702778644873
L1D access 1209 set 9 way 0 hit 1149 address 702778644873
L1D access 1210 set 9 way 0 hit 1150 address 702778644873
L1D access 1211 set 9 way 0 hit 1151 address 702778644873
L1D access 1212 set 9 way 0 hit 1152 address 702778644873
L1D access 1213 set 9 way 0 hit 1153 address 702778644873
L1D access 1214 set 9 way 0 hit 1154 address 702778644873
L1D access 1215 set 9 way 0 hit 1155 address 702778644873
L1D access 1216 set 9 way 0 hit 1156 address 702778644873
L1D access 1217 set 9 way 0 hit 1157 address 702778644873
L1D access 1218 set 9 way 0 hit 1158 address 702778644873
L1D access 1219 set 9 way 0 hit 1159 address 702778644873
L1D access 1220 set 9 way 0 hit 1160 address 702778644873
L1D access 1221 set 9 way 0 hit 1161 address 702778644873
L1D access 1222 set 9 way 0 hit 1162 address 702778644873
L1D access 1223 set 9 way 0 hit 1163 address 702778644873
L1D access 1224 set 9 way 0 hit 1164 address 702778644873
L1D access 1225 set 9 way 0 hit 1165 address 702778644873
L1D access 1226 set 27 way 9 hit 1166 address 702778644923
L1D access 1227 set 9 way 0 hit 1167 address 702778644873
L1D access 1228 set 9 way 0 hit 1168 address 702778644873
L1D access 1229 set 27 way 9 hit 1169 address 702778644923
L1D access 1230 set 9 way 0 hit 1170 address 702778644873
L1D access 1231 set 27 way 9 hit 1171 address 702778644923
L1D access 1232 set 9 way 0 hit 1172 address 702778644873
L1D access 1233 set 9 way 0 hit 1173 address 702778644873
L1D access 1234 set 27 way 9 hit 1174 address 702778644923
L1D access 1235 set 9 way 0 hit 1175 address 702778644873
L1D access 1236 set 27 way 9 hit 1176 address 702778644923
L1D access 1237 set 9 way 0 hit 1177 address 702778644873
L1D access 1238 set 26 way 1 miss 61 address 702778644922
L1D access 1239 set 27 way 9 hit 1178 address 702778644923
L1D access 1240 set 27 way 9 hit 1179 address 702778644923
L1D access 1241 set 9 way 0 hit 1180 address 702778644873
L1D access 1242 set 9 way 0 hit 1181 address 702778644873
L1D access 1243 set 9 way 0 hit 1182 address 702778644873
L1D access 1244 set 27 way 9 hit 1183 address 702778644923
L1D access 1245 set 9 way 0 hit 1184 address 702778644873
L1D access 1246 set 9 way 0 hit 1185 address 702778644873
L1D access 1247 set 27 way 9 hit 1186 address 702778644923
L1D access 1248 set 9 way 0 hit 1187 address 702778644873
L1D access 1249 set 27 way 9 hit 1188 address 702778644923
L1D access 1250 set 9 way 0 hit 1189 address 702778644873
L1D access 1251 set 27 way 9 hit 1190 address 702778644923
L1D access 1252 set 9 way 0 hit 1191 address 702778644873
L1D access 1253 set 27 way 9 hit 1192 address 702778644923
L1D access 1254 set 9 way 0 hit 1193 address 702778644873
L1D access 1255 set 9 way 0 hit 1194 address 702778644873
L1D access 1256 set 27 way 9 hit 1195 address 702778644923
L1D access 1257 set 27 way 9 hit 1196 address 702778644923
L1D access 1258 set 9 way 0 hit 1197 address 702778644873
L1D access 1259 set 27 way 9 hit 1198 address 702778644923
L1D access 1260 set 27 way 9 hit 1199 address 702778644923
L1D access 1261 set 9 way 0 hit 1200 address 702778644873
L1D access 1262 set 9 way 0 hit 1201 address 702778644873
L1D access 1263 set 9 way 0 hit 1202 address 702778644873
L1D access 1264 set 9 way 0 hit 1203 address 702778644873
L1D access 1265 set 9 way 0 hit 1204 address 702778644873
L1D access 1266 set 9 way 0 hit 1205 address 702778644873
L1D access 1267 set 9 way 0 hit 1206 address 702778644873
L1D access 1268 set 9 way 0 hit 1207 address 702778644873
L1D access 1269 set 9 way 0 hit 1208 address 702778644873
L1D access 1270 set 9 way 0 hit 1209 address 702778644873
L1D access 1271 set 9 way 0 hit 1210 address 702778644873
L1D access 1272 set 9 way 0 hit 1211 address 702778644873
L1D access 1273 set 9 way 0 hit 1212 address 702778644873
L1D access 1274 set 9 way 0 hit 1213 address 702778644873
L1D access 1275 set 9 way 0 hit 1214 address 702778644873
L1D access 1276 set 9 way 0 hit 1215 address 702778644873
L1D access 1277 set 9 way 0 hit 1216 address 702778644873
L1D access 1278 set 9 way 0 hit 1217 address 702778644873
L1D access 1279 set 9 way 0 hit 1218 address 702778644873
L1D access 1280 set 9 way 0 hit 1219 address 702778644873
L1D access 1281 set 9 way 0 hit 1220 address 702778644873
L1D access 1282 set 9 way 0 hit 1221 address 702778644873
L1D access 1283 set 9 way 0 hit 1222 address 702778644873
L1D access 1284 set 9 way 0 hit 1223 address 702778644873
L1D access 1285 set 9 way 0 hit 1224 address 702778644873
L1D access 1286 set 9 way 0 hit 1225 address 702778644873
L1D access 1287 set 9 way 0 hit 1226 address 702778644873
L1D access 1288 set 9 way 0 hit 1227 address 702778644873
L1D access 1289 set 9 way 0 hit 1228 address 702778644873
L1D access 1290 set 9 way 0 hit 1229 address 702778644873
L1D access 1291 set 9 way 0 hit 1230 address 702778644873
L1D access 1292 set 28 way 1 miss 62 address 702778644924
L1D access 1293 set 9 way 0 hit 1231 address 702778644873
L1D access 1294 set 9 way 0 hit 1232 address 702778644873
L1D access 1295 set 9 way 0 hit 1233 address 702778644873
L1D access 1296 set 9 way 0 hit 1234 address 702778644873
L1D access 1297 set 9 way 0 hit 1235 address 702778644873
L1D access 1298 set 9 way 0 hit 1236 address 702778644873
L1D access 1299 set 9 way 0 hit 1237 address 702778644873
L1D access 1300 set 9 way 0 hit 1238 address 702778644873
L1D access 1301 set 9 way 0 hit 1239 address 702778644873
L1D access 1302 set 9 way 0 hit 1240 address 702778644873
L1D access 1303 set 9 way 0 hit 1241 address 702778644873
L1D access 1304 set 9 way 0 hit 1242 address 702778644873
L1D access 1305 set 9 way 0 hit 1243 address 702778644873
L1D access 1306 set 9 way 0 hit 1244 address 702778644873
L1D access 1307 set 9 way 0 hit 1245 address 702778644873
L1D access 1308 set 9 way 0 hit 1246 address 702778644873
L1D access 1309 set 9 way 0 hit 1247 address 702778644873
L1D access 1310 set 9 way 0 hit 1248 address 702778644873
L1D access 1311 set 9 way 0 hit 1249 address 702778644873
L1D access 1312 set 9 way 0 hit 1250 address 702778644873
L1D access 1313 set 9 way 0 hit 1251 address 702778644873
L1D access 1314 set 9 way 0 hit 1252 address 702778644873
L1D access 1315 set 9 way 0 hit 1253 address 702778644873
L1D access 1316 set 9 way 0 hit 1254 address 702778644873
L1D access 1317 set 9 way 0 hit 1255 address 702778644873
L1D access 1318 set 9 way 0 hit 1256 address 702778644873
L1D access 1319 set 9 way 0 hit 1257 address 702778644873
L1D access 1320 set 29 way 2 miss 63 address 702778644925
L1D access 1321 set 9 way 0 hit 1258 address 702778644873
L1D access 1322 set 9 way 0 hit 1259 address 702778644873
L1D access 1323 set 9 way 0 hit 1260 address 702778644873
L1D access 1324 set 9 way 0 hit 1261 address 702778644873
L1D access 1325 set 9 way 0 hit 1262 address 702778644873
L1D access 1326 set 9 way 0 hit 1263 address 702778644873
L1D access 1327 set 9 way 0 hit 1264 address 702778644873
L1D access 1328 set 9 way 0 hit 1265 address 702778644873
L1D access 1329 set 9 way 0 hit 1266 address 702778644873
L1D access 1330 set 9 way 0 hit 1267 address 702778644873
L1D access 1331 set 9 way 0 hit 1268 address 702778644873
L1D access 1332 set 9 way 0 hit 1269 address 702778644873
L1D access 1333 set 9 way 0 hit 1270 address 702778644873
L1D access 1334 set 9 way 0 hit 1271 address 702778644873
L1D access 1335 set 9 way 0 hit 1272 address 702778644873
L1D access 1336 set 9 way 0 hit 1273 address 702778644873
L1D access 1337 set 9 way 0 hit 1274 address 702778644873
L1D access 1338 set 9 way 0 hit 1275 address 702778644873
L1D access 1339 set 9 way 0 hit 1276 address 702778644873
L1D access 1340 set 9 way 0 hit 1277 address 702778644873
L1D access 1341 set 9 way 0 hit 1278 address 702778644873
L1D access 1342 set 9 way 0 hit 1279 address 702778644873
L1D access 1343 set 30 way 1 miss 64 address 702778644926
L1D access 1344 set 9 way 0 hit 1280 address 702778644873
L1D access 1345 set 9 way 0 hit 1281 address 702778644873
L1D access 1346 set 9 way 0 hit 1282 address 702778644873
L1D access 1347 set 9 way 0 hit 1283 address 702778644873
L1D access 1348 set 9 way 0 hit 1284 address 702778644873
L1D access 1349 set 9 way 0 hit 1285 address 702778644873
L1D access 1350 set 9 way 0 hit 1286 address 702778644873
L1D access 1351 set 9 way 0 hit 1287 address 702778644873
L1D access 1352 set 9 way 0 hit 1288 address 702778644873
L1D access 1353 set 9 way 0 hit 1289 address 702778644873
L1D access 1354 set 9 way 0 hit 1290 address 702778644873
L1D access 1355 set 9 way 0 hit 1291 address 702778644873
L1D access 1356 set 9 way 0 hit 1292 address 702778644873
L1D access 1357 set 9 way 0 hit 1293 address 702778644873
L1D access 1358 set 9 way 0 hit 1294 address 702778644873
L1D access 1359 set 9 way 0 hit 1295 address 702778644873
L1D access 1360 set 9 way 0 hit 1296 address 702778644873
L1D access 1361 set 9 way 0 hit 1297 address 702778644873
L1D access 1362 set 9 way 0 hit 1298 address 702778644873
L1D access 1363 set 9 way 0 hit 1299 address 702778644873
L1D access 1364 set 31 way 1 miss 65 address 702778644927
L1D access 1365 set 9 way 0 hit 1300 address 702778644873
L1D access 1366 set 9 way 0 hit 1301 address 702778644873
L1D access 1367 set 9 way 0 hit 1302 address 702778644873
L1D access 1368 set 9 way 0 hit 1303 address 702778644873
L1D access 1369 set 9 way 0 hit 1304 address 702778644873
L1D access 1370 set 9 way 0 hit 1305 address 702778644873
L1D access 1371 set 9 way 0 hit 1306 address 702778644873
L1D access 1372 set 9 way 0 hit 1307 address 702778644873
L1D access 1373 set 9 way 0 hit 1308 address 702778644873
L1D access 1374 set 9 way 0 hit 1309 address 702778644873
L1D access 1375 set 9 way 0 hit 1310 address 702778644873
L1D access 1376 set 9 way 0 hit 1311 address 702778644873
L1D access 1377 set 9 way 0 hit 1312 address 702778644873
L1D access 1378 set 9 way 0 hit 1313 address 702778644873
L1D access 1379 set 9 way 0 hit 1314 address 702778644873
L1D access 1380 set 9 way 0 hit 1315 address 702778644873
L1D access 1381 set 9 way 0 hit 1316 address 702778644873
L1D access 1382 set 9 way 0 hit 1317 address 702778644873
L1D access 1383 set 9 way 0 hit 1318 address 702778644873
L1D access 1384 set 9 way 0 hit 1319 address 702778644873
L1D access 1385 set 9 way 0 hit 1320 address 702778644873
L1D access 1386 set 9 way 0 hit 1321 address 702778644873
L1D access 1387 set 9 way 0 hit 1322 address 702778644873
L1D access 1388 set 9 way 0 hit 1323 address 702778644873
L1D access 1389 set 9 way 0 hit 1324 address 702778644873
L1D access 1390 set 0 way 1 miss 66 address 702778644800
L1D access 1391 set 9 way 0 hit 1325 address 702778644873
L1D access 1392 set 9 way 0 hit 1326 address 702778644873
L1D access 1393 set 9 way 0 hit 1327 address 702778644873
L1D access 1394 set 9 way 0 hit 1328 address 702778644873
L1D access 1395 set 9 way 0 hit 1329 address 702778644873
L1D access 1396 set 9 way 0 hit 1330 address 702778644873
L1D access 1397 set 9 way 0 hit 1331 address 702778644873
L1D access 1398 set 9 way 0 hit 1332 address 702778644873
L1D access 1399 set 9 way 0 hit 1333 address 702778644873
L1D access 1400 set 9 way 0 hit 1334 address 702778644873
L1D access 1401 set 9 way 0 hit 1335 address 702778644873
L1D access 1402 set 9 way 0 hit 1336 address 702778644873
L1D access 1403 set 9 way 0 hit 1337 address 702778644873
L1D access 1404 set 9 way 0 hit 1338 address 702778644873
L1D access 1405 set 9 way 0 hit 1339 address 702778644873
L1D access 1406 set 9 way 0 hit 1340 address 702778644873
L1D access 1407 set 9 way 0 hit 1341 address 702778644873
L1D access 1408 set 9 way 0 hit 1342 address 702778644873
L1D access 1409 set 9 way 0 hit 1343 address 702778644873
L1D access 1410 set 9 way 0 hit 1344 address 702778644873
[...]
L1D access 15212 set 9 way 0 hit 14591 address 702778644873
L1D access 15213 set 9 way 0 hit 14592 address 702778644873
L1D access 15214 set 9 way 0 hit 14593 address 702778644873
L1D access 15215 set 9 way 0 hit 14594 address 702778644873
L1D access 15216 set 9 way 0 hit 14595 address 702778644873
L1D access 15217 set 9 way 0 hit 14596 address 702778644873
L1D access 15218 set 9 way 0 hit 14597 address 702778644873
L1D access 15219 set 9 way 0 hit 14598 address 702778644873
L1D access 15220 set 9 way 0 hit 14599 address 702778644873
L1D access 15221 set 9 way 0 hit 14600 address 702778644873
L1D access 15222 set 9 way 0 hit 14601 address 702778644873
L1D access 15223 set 9 way 0 hit 14602 address 702778644873
L1D access 15224 set 9 way 0 hit 14603 address 702778644873
L1D access 15225 set 9 way 0 hit 14604 address 702778644873
L1D access 15226 set 9 way 0 hit 14605 address 702778644873
L1D access 15227 set 9 way 0 hit 14606 address 702778644873
L1D access 15228 set 9 way 0 hit 14607 address 702778644873
L1D access 15229 set 9 way 0 hit 14608 address 702778644873
L1D access 15230 set 9 way 0 hit 14609 address 702778644873
L1D access 15231 set 9 way 0 hit 14610 address 702778644873
L1D access 15232 set 18 way 3 miss 622 address 702778644338
L1D access 15233 set 9 way 0 hit 14611 address 702778644873
L1D access 15234 set 9 way 0 hit 14612 address 702778644873
L1D access 15235 set 9 way 0 hit 14613 address 702778644873
L1D access 15236 set 9 way 0 hit 14614 address 702778644873
L1D access 15237 set 9 way 0 hit 14615 address 702778644873
L1D access 15238 set 9 way 0 hit 14616 address 702778644873
L1D access 15239 set 9 way 0 hit 14617 address 702778644873
L1D access 15240 set 9 way 0 hit 14618 address 702778644873
L1D access 15241 set 9 way 0 hit 14619 address 702778644873
L1D access 15242 set 9 way 0 hit 14620 address 702778644873
L1D access 15243 set 9 way 0 hit 14621 address 702778644873
L1D access 15244 set 9 way 0 hit 14622 address 702778644873
L1D access 15245 set 9 way 0 hit 14623 address 702778644873
L1D access 15246 set 9 way 0 hit 14624 address 702778644873
L1D access 15247 set 9 way 0 hit 14625 address 702778644873
L1D access 15248 set 9 way 0 hit 14626 address 702778644873
L1D access 15249 set 9 way 0 hit 14627 address 702778644873
L1D access 15250 set 9 way 0 hit 14628 address 702778644873
L1D access 15251 set 9 way 0 hit 14629 address 702778644873
L1D access 15252 set 9 way 0 hit 14630 address 702778644873
L1D access 15253 set 9 way 0 hit 14631 address 702778644873
L1D access 15254 set 9 way 0 hit 14632 address 702778644873
L1D access 15255 set 9 way 0 hit 14633 address 702778644873
L1D access 15256 set 19 way 3 miss 623 address 702778644339
L1D access 15257 set 9 way 0 hit 14634 address 702778644873
L1D access 15258 set 9 way 0 hit 14635 address 702778644873
L1D access 15259 set 9 way 0 hit 14636 address 702778644873
L1D access 15260 set 9 way 0 hit 14637 address 702778644873
L1D access 15261 set 9 way 0 hit 14638 address 702778644873
L1D access 15262 set 9 way 0 hit 14639 address 702778644873
L1D access 15263 set 9 way 0 hit 14640 address 702778644873
L1D access 15264 set 9 way 0 hit 14641 address 702778644873
L1D access 15265 set 9 way 0 hit 14642 address 702778644873
L1D access 15266 set 9 way 0 hit 14643 address 702778644873
L1D access 15267 set 9 way 0 hit 14644 address 702778644873
L1D access 15268 set 9 way 0 hit 14645 address 702778644873
L1D access 15269 set 9 way 0 hit 14646 address 702778644873
L1D access 15270 set 9 way 0 hit 14647 address 702778644873
L1D access 15271 set 9 way 0 hit 14648 address 702778644873
L1D access 15272 set 9 way 0 hit 14649 address 702778644873
L1D access 15273 set 9 way 0 hit 14650 address 702778644873
L1D access 15274 set 9 way 0 hit 14651 address 702778644873
L1D access 15275 set 9 way 0 hit 14652 address 702778644873
L1D access 15276 set 9 way 0 hit 14653 address 702778644873
L1D access 15277 set 20 way 3 miss 624 address 702778644340
L1D access 15278 set 20 way 3 hit 14654 address 702778644340
L1D access 15279 set 9 way 0 hit 14655 address 702778644873
L1D access 15280 set 9 way 0 hit 14656 address 702778644873
L1D access 15281 set 9 way 0 hit 14657 address 702778644873
L1D access 15282 set 9 way 0 hit 14658 address 702778644873
L1D access 15283 set 9 way 0 hit 14659 address 702778644873
L1D access 15284 set 9 way 0 hit 14660 address 702778644873
L1D access 15285 set 9 way 0 hit 14661 address 702778644873
L1D access 15286 set 9 way 0 hit 14662 address 702778644873
L1D access 15287 set 9 way 0 hit 14663 address 702778644873
L1D access 15288 set 9 way 0 hit 14664 address 702778644873
L1D access 15289 set 9 way 0 hit 14665 address 702778644873
L1D access 15290 set 9 way 0 hit 14666 address 702778644873
L1D access 15291 set 9 way 0 hit 14667 address 702778644873
L1D access 15292 set 9 way 0 hit 14668 address 702778644873
L1D access 15293 set 9 way 0 hit 14669 address 702778644873
L1D access 15294 set 9 way 0 hit 14670 address 702778644873
L1D access 15295 set 9 way 0 hit 14671 address 702778644873
L1D access 15296 set 9 way 0 hit 14672 address 702778644873
L1D access 15297 set 9 way 0 hit 14673 address 702778644873
L1D access 15298 set 9 way 0 hit 14674 address 702778644873
L1D access 15299 set 9 way 0 hit 14675 address 702778644873
L1D access 15300 set 9 way 0 hit 14676 address 702778644873
L1D access 15301 set 9 way 0 hit 14677 address 702778644873
L1D access 15302 set 9 way 0 hit 14678 address 702778644873
L1D access 15303 set 9 way 0 hit 14679 address 702778644873
L1D access 15304 set 9 way 0 hit 14680 address 702778644873
L1D access 15305 set 9 way 0 hit 14681 address 702778644873
L1D access 15306 set 9 way 0 hit 14682 address 702778644873
L1D access 15307 set 9 way 0 hit 14683 address 702778644873
L1D access 15308 set 21 way 3 miss 625 address 702778644341
L1D access 15309 set 9 way 0 hit 14684 address 702778644873
L1D access 15310 set 9 way 0 hit 14685 address 702778644873
L1D access 15311 set 9 way 0 hit 14686 address 702778644873
L1D access 15312 set 9 way 0 hit 14687 address 702778644873
L1D access 15313 set 9 way 0 hit 14688 address 702778644873
L1D access 15314 set 9 way 0 hit 14689 address 702778644873
L1D access 15315 set 9 way 0 hit 14690 address 702778644873
L1D access 15316 set 9 way 0 hit 14691 address 702778644873
L1D access 15317 set 9 way 0 hit 14692 address 702778644873
L1D access 15318 set 9 way 0 hit 14693 address 702778644873
L1D access 15319 set 9 way 0 hit 14694 address 702778644873
L1D access 15320 set 9 way 0 hit 14695 address 702778644873
L1D access 15321 set 9 way 0 hit 14696 address 702778644873
L1D access 15322 set 9 way 0 hit 14697 address 702778644873
L1D access 15323 set 9 way 0 hit 14698 address 702778644873
L1D access 15324 set 9 way 0 hit 14699 address 702778644873
L1D access 15325 set 9 way 0 hit 14700 address 702778644873
L1D access 15326 set 9 way 0 hit 14701 address 702778644873
L1D access 15327 set 9 way 0 hit 14702 address 702778644873
L1D access 15328 set 9 way 0 hit 14703 address 702778644873
L1D access 15329 set 9 way 0 hit 14704 address 702778644873
L1D access 15330 set 9 way 0 hit 14705 address 702778644873
L1D access 15331 set 9 way 0 hit 14706 address 702778644873
L1D access 15332 set 9 way 0 hit 14707 address 702778644873
L1D access 15333 set 22 way 3 miss 626 address 702778644342
L1D access 15334 set 9 way 0 hit 14708 address 702778644873
L1D access 15335 set 9 way 0 hit 14709 address 702778644873
L1D access 15336 set 9 way 0 hit 14710 address 702778644873
L1D access 15337 set 9 way 0 hit 14711 address 702778644873
L1D access 15338 set 9 way 0 hit 14712 address 702778644873
L1D access 15339 set 9 way 0 hit 14713 address 702778644873
L1D access 15340 set 9 way 0 hit 14714 address 702778644873
L1D access 15341 set 9 way 0 hit 14715 address 702778644873
L1D access 15342 set 9 way 0 hit 14716 address 702778644873
L1D access 15343 set 9 way 0 hit 14717 address 702778644873
L1D access 15344 set 9 way 0 hit 14718 address 702778644873
L1D access 15345 set 9 way 0 hit 14719 address 702778644873
L1D access 15346 set 9 way 0 hit 14720 address 702778644873
L1D access 15347 set 9 way 0 hit 14721 address 702778644873
L1D access 15348 set 9 way 0 hit 14722 address 702778644873
L1D access 15349 set 9 way 0 hit 14723 address 702778644873
L1D access 15350 set 9 way 0 hit 14724 address 702778644873
L1D access 15351 set 9 way 0 hit 14725 address 702778644873
L1D access 15352 set 9 way 0 hit 14726 address 702778644873
L1D access 15353 set 9 way 0 hit 14727 address 702778644873
L1D access 15354 set 9 way 0 hit 14728 address 702778644873
L1D access 15355 set 9 way 0 hit 14729 address 702778644873
L1D access 15356 set 23 way 3 miss 627 address 702778644343
L1D access 15357 set 9 way 0 hit 14730 address 702778644873
L1D access 15358 set 9 way 0 hit 14731 address 702778644873
L1D access 15359 set 9 way 0 hit 14732 address 702778644873
L1D access 15360 set 9 way 0 hit 14733 address 702778644873
L1D access 15361 set 9 way 0 hit 14734 address 702778644873
L1D access 15362 set 9 way 0 hit 14735 address 702778644873
L1D access 15363 set 9 way 0 hit 14736 address 702778644873
L1D access 15364 set 9 way 0 hit 14737 address 702778644873
L1D access 15365 set 9 way 0 hit 14738 address 702778644873
L1D access 15366 set 9 way 0 hit 14739 address 702778644873
L1D access 15367 set 9 way 0 hit 14740 address 702778644873
L1D access 15368 set 9 way 0 hit 14741 address 702778644873
L1D access 15369 set 9 way 0 hit 14742 address 702778644873
L1D access 15370 set 9 way 0 hit 14743 address 702778644873
L1D access 15371 set 9 way 0 hit 14744 address 702778644873
L1D access 15372 set 9 way 0 hit 14745 address 702778644873
L1D access 15373 set 9 way 0 hit 14746 address 702778644873
L1D access 15374 set 9 way 0 hit 14747 address 702778644873
L1D access 15375 set 9 way 0 hit 14748 address 702778644873
L1D access 15376 set 9 way 0 hit 14749 address 702778644873
L1D access 15377 set 9 way 0 hit 14750 address 702778644873
L1D access 15378 set 9 way 0 hit 14751 address 702778644873
L1D access 15379 set 9 way 0 hit 14752 address 702778644873
L1D access 15380 set 24 way 3 miss 628 address 702778644344
L1D access 15381 set 9 way 0 hit 14753 address 702778644873
L1D access 15382 set 9 way 0 hit 14754 address 702778644873
L1D access 15383 set 9 way 0 hit 14755 address 702778644873
L1D access 15384 set 9 way 0 hit 14756 address 702778644873
L1D access 15385 set 9 way 0 hit 14757 address 702778644873
L1D access 15386 set 9 way 0 hit 14758 address 702778644873
L1D access 15387 set 9 way 0 hit 14759 address 702778644873
L1D access 15388 set 9 way 0 hit 14760 address 702778644873
L1D access 15389 set 9 way 0 hit 14761 address 702778644873
L1D access 15390 set 9 way 0 hit 14762 address 702778644873
L1D access 15391 set 9 way 0 hit 14763 address 702778644873
L1D access 15392 set 9 way 0 hit 14764 address 702778644873
L1D access 15393 set 9 way 0 hit 14765 address 702778644873
L1D access 15394 set 9 way 0 hit 14766 address 702778644873
L1D access 15395 set 9 way 0 hit 14767 address 702778644873
L1D access 15396 set 9 way 0 hit 14768 address 702778644873
L1D access 15397 set 9 way 0 hit 14769 address 702778644873
L1D access 15398 set 9 way 0 hit 14770 address 702778644873
L1D access 15399 set 9 way 0 hit 14771 address 702778644873
L1D access 15400 set 9 way 0 hit 14772 address 702778644873
L1D access 15401 set 9 way 0 hit 14773 address 702778644873
L1D access 15402 set 9 way 0 hit 14774 address 702778644873
L1D access 15403 set 9 way 0 hit 14775 address 702778644873
L1D access 15404 set 9 way 0 hit 14776 address 702778644873
L1D access 15405 set 25 way 3 miss 629 address 702778644345
L1D access 15406 set 9 way 0 hit 14777 address 702778644873
L1D access 15407 set 9 way 0 hit 14778 address 702778644873
L1D access 15408 set 9 way 0 hit 14779 address 702778644873
L1D access 15409 set 9 way 0 hit 14780 address 702778644873
L1D access 15410 set 9 way 0 hit 14781 address 702778644873
L1D access 15411 set 9 way 0 hit 14782 address 702778644873
L1D access 15412 set 9 way 0 hit 14783 address 702778644873
L1D access 15413 set 9 way 0 hit 14784 address 702778644873
L1D access 15414 set 9 way 0 hit 14785 address 702778644873
L1D access 15415 set 9 way 0 hit 14786 address 702778644873
L1D access 15416 set 9 way 0 hit 14787 address 702778644873
L1D access 15417 set 9 way 0 hit 14788 address 702778644873
L1D access 15418 set 9 way 0 hit 14789 address 702778644873
L1D access 15419 set 9 way 0 hit 14790 address 702778644873
L1D access 15420 set 26 way 3 miss 630 address 702778644346
L1D access 15421 set 27 way 8 miss 631 address 702778644347
L1D access 15422 set 29 way 4 miss 632 address 702778644957
*** Reached end of trace for Core: 0 Repeating trace: /home/smriti/VMS/obj_trace.xz
5 15 0 1
2 15 0 1
24 15 0 1
16 15 0 1
15 15 0 1
13 15 0 1
12 15 0 1
9 15 0 1
6 14 0 1
25 14 0 1
24 14 1 1
22 14 0 1
21 14 0 1
17 14 0 1
16 14 0 1
15 14 0 1
11 14 0 1
10 14 0 1
8 14 0 1
6 13 0 1
1 13 0 1
0 13 0 1
30 13 0 1
29 14 0 1
25 13 2 1
18 13 0 1
15 13 0 1
14 13 0 1
9 13 0 1
25 15 0 1
8 12 0 1
7 12 0 1
6 12 1 1
5 12 0 1
2 12 0 1
30 12 0 1
28 14 0 1
25 12 0 1
24 12 0 1
23 12 0 1
22 12 0 1
19 12 1 1
14 14 0 1
18 12 0 1
5 14 0 1
16 12 0 1
6 15 0 1
15 12 0 1
10 15 0 1
14 12 0 1
13 12 1 1
10 12 0 1
9 12 0 1
8 11 0 1
7 11 0 1
6 11 0 1
2 11 0 1
1 14 0 1
1 11 0 1
0 11 0 1
30 11 0 1
31 13 3 1
24 11 0 1
19 11 0 1
17 11 0 1
16 11 0 1
14 11 1 1
2 13 0 1
31 11 0 1
11 11 0 1
8 10 0 1
7 10 0 1
3 15 0 1
5 10 0 1
3 10 0 1
20 13 0 1
0 12 1 1
2 10 0 1
31 10 0 1
31 15 0 1
30 10 0 1
28 15 0 1
26 15 0 1
29 11 0 1
28 10 0 1
25 10 0 1
24 10 0 1
23 10 0 1
22 10 0 1
11 12 0 1
20 10 0 1
16 10 0 1
15 10 0 1
14 10 0 1
23 15 1 1
10 13 0 1
10 10 0 1
9 10 0 1
7 9 0 1
6 9 0 1
5 9 0 1
4 9 0 1
3 9 0 1
17 13 0 1
2 9 1 1
1 9 0 1
0 9 0 1
31 9 0 1
30 9 0 1
29 10 0 1
22 9 0 1
21 9 0 1
20 9 0 1
11 13 0 1
18 9 0 1
16 9 0 1
15 9 1 1
12 9 0 1
21 10 3 1
10 9 0 1
8 8 0 1
7 8 0 1
3 8 1 1
12 14 0 1
2 8 0 1
0 8 0 1
3 11 0 1
29 9 0 1
13 9 0 1
28 8 0 1
27 14 0 1
25 8 0 1
24 9 0 1
24 8 0 1
20 8 0 1
19 8 0 1
11 15 1 1
17 8 0 1
15 8 0 1
14 8 0 1
13 8 0 1
11 8 0 1
17 12 0 1
4 8 0 1
9 8 0 1
8 9 1 1
8 7 0 1
7 7 0 1
15 11 0 1
6 7 0 1
4 7 0 1
28 3 0 1
11 10 0 1
23 3 0 2
3 6 0 1
19 3 0 2
7 13 0 1
16 3 0 2
18 1 0 2
17 2 0 2
12 3 0 2
3 14 0 1
4 1 0 2
20 3 2 2
9 3 0 2
15 7 0 1
26 7 0 1
13 14 0 1
25 11 0 1
3 2 0 2
24 1 0 2
29 3 0 2
28 2 0 2
2 3 0 1
9 7 0 1
26 2 0 2
24 13 0 1
25 2 0 2
15 0 0 2
12 10 0 1
21 3 0 2
21 2 1 2
30 8 0 1
28 1 0 2
0 15 0 1
20 2 0 2
15 2 0 2
11 2 0 2
20 15 0 1
14 2 2 2
26 3 1 2
5 2 0 2
30 15 0 1
19 6 0 1
23 2 0 2
4 4 0 1
7 1 0 2
0 10 0 1
2 1 3 2
27 3 17 1
13 13 0 1
31 8 0 1
11 7 0 1
29 12 0 1
22 8 2 1
0 4 0 1
1 1 0 2
0 1 0 2
6 2 0 2
3 5 0 1
11 9 0 1
13 6 0 1
26 0 0 2
19 14 0 1
4 2 0 2
31 3 0 1
1 10 0 1
5 1 0 2
21 13 0 1
20 5 0 1
28 0 1 2
29 7 0 1
20 14 0 1
20 12 0 1
26 10 0 1
27 5 17 1
10 3 0 2
17 7 2 1
26 11 1 1
21 0 0 2
16 2 0 2
3 12 0 1
24 3 0 2
29 2 0 2
19 0 0 2
23 11 0 1
4 0 0 2
8 2 1 2
9 0 5617 8936
20 0 0 2
19 15 0 1
17 5 0 1
29 5 0 1
22 13 0 1
22 0 1 2
2 2 0 2
17 1 0 2
1 15 0 1
12 11 0 1
17 0 0 2
19 10 0 1
8 0 0 2
6 3 0 1
14 0 0 2
25 3 0 2
0 14 0 1
27 7 17 1
19 1 0 2
23 8 0 1
31 5 0 1
18 0 0 2
10 7 0 1
13 4 3 1
17 3 0 2
29 8 2 1
22 3 0 2
12 0 0 2
27 4 17 1
21 15 0 1
27 1 1 2
9 2 0 2
23 1 0 2
25 1 0 2
10 2 0 2
16 8 1 1
31 1 0 2
28 4 0 1
4 10 0 1
14 1 0 2
13 0 0 2
30 2 0 2
28 13 0 1
1 8 0 1
13 5 0 1
26 1 0 2
5 5 1 1
4 15 1 1
22 1 1 2
2 5 0 1
13 3 0 2
22 7 0 1
28 6 0 1
27 6 17 1
23 0 0 2
26 5 0 1
27 8 17 2
9 1 2 2
27 9 30 2
6 0 0 2
18 10 0 1
7 0 0 2
18 5 1 1
14 9 0 1
19 2 0 2
7 15 0 1
25 0 0 2
9 9 2 1
29 0 0 2
13 1 0 2
18 3 0 2
30 14 2 1
30 3 0 1
18 2 0 2
14 6 0 1
26 9 0 1
24 2 0 2
25 9 0 1
11 0 0 2
14 15 0 1
3 0 1 2
27 0 14 2
29 4 0 2
16 1 0 2
27 11 2 2
21 5 0 1
22 11 0 1
16 0 1 2
26 14 0 1
1 2 2 2
20 4 0 1
27 2 1 2
10 0 1 2
18 15 0 1
31 14 0 1
29 1 3 2
18 8 0 1
31 2 0 2
8 15 0 1
5 7 0 1
30 0 0 2
18 7 0 1
31 0 0 2
2 14 0 1
1 0 0 2
9 4 0 2
8 6 0 1
0 6 0 1
11 1 0 2
17 15 2 1
18 4 0 1
23 14 0 1
7 3 0 1
9 14 0 1
5 0 0 2
10 11 0 1
22 4 0 1
10 1 0 2
21 12 0 1
21 4 0 1
18 6 0 1
15 1 3 2
4 14 0 1
20 1 0 2
6 1 0 2
9 6 0 1
24 0 0 2
0 3 1 1
1 3 0 1
26 13 0 1
3 1 0 2
3 3 0 1
23 9 0 1
8 1 1 2
4 3 0 1
18 11 0 1
8 5 0 1
4 6 1 1
5 3 0 1
12 2 0 2
8 3 0 1
1 6 0 1
28 12 0 1
10 4 0 1
9 11 0 1
11 4 0 1
12 1 0 2
12 4 0 1
14 4 0 1
12 12 0 1
15 4 0 1
14 3 1 2
2 7 0 1
16 4 0 1
7 2 1 2
21 1 2 2
12 6 0 1
22 2 0 2
17 4 0 1
19 4 1 1
23 4 0 1
24 4 0 1
4 13 0 1
17 9 0 1
0 0 0 2
10 5 0 1
22 6 0 1
26 4 0 1
27 12 0 1
31 4 0 1
13 2 0 2
30 4 0 1
23 13 0 1
1 4 0 1
2 4 0 1
3 7 0 1
3 4 0 1
3 13 0 1
16 13 0 1
5 4 0 1
2 0 0 2
24 5 0 1
6 4 1 1
5 13 0 1
15 5 0 1
7 4 0 1
12 8 0 1
16 7 0 1
8 4 0 1
24 7 0 1
9 5 0 1
5 11 0 1
27 10 0 2
11 5 0 1
12 5 0 1
14 5 0 1
31 12 0 1
19 5 0 1
7 14 0 1
11 3 0 2
22 5 0 1
4 11 0 1
11 6 1 1
21 8 0 1
25 5 0 1
28 5 0 1
14 7 0 1
29 13 0 1
28 11 0 1
16 5 0 1
29 6 0 1
28 9 1 1
10 8 2 1
15 3 0 2
2 6 0 1
30 5 0 1
0 5 0 1
1 5 0 1
30 1 0 2
4 5 0 1
16 6 0 1
6 5 0 1
27 15 1 1
7 5 0 1
5 8 0 1
10 6 0 1
1 12 0 1
21 7 0 1
15 6 0 1
17 6 0 1
6 6 0 1
17 10 0 1
20 6 0 1
22 15 0 1
21 6 0 1
30 6 1 1
23 6 0 1
20 11 0 1
0 7 0 1
6 10 0 1
0 2 0 2
24 6 1 1
13 11 0 1
25 6 0 1
23 5 0 1
26 6 0 1
19 13 0 1
23 7 3 1
27 13 0 1
29 15 0 1
19 9 0 1
31 6 0 1
7 6 0 1
12 7 0 1
12 13 1 1
25 4 0 1
13 7 0 1
6 8 0 1
19 7 0 1
21 11 0 1
26 8 0 1
20 7 0 1
18 14 2 1
26 12 0 1
13 10 0 1
28 7 0 1
25 7 0 1
8 13 0 1
4 12 0 1
30 7 0 1
31 7 0 1
5 6 0 1
1 7 0 1

ChampSim completed all CPUs

Region of Interest Statistics

CPU 0 cumulative IPC: -nan instructions: 0 cycles: 0
L1D TOTAL     ACCESS:          0  HIT:          0  MISS:          0
L1D LOAD      ACCESS:          0  HIT:          0  MISS:          0
L1D RFO       ACCESS:          0  HIT:          0  MISS:          0
L1D PREFETCH  ACCESS:          0  HIT:          0  MISS:          0
L1D WRITEBACK ACCESS:          0  HIT:          0  MISS:          0
L1D PREFETCH  REQUESTED:          0  ISSUED:          0  USEFUL:          0  USELESS:          0
L1D AVERAGE MISS LATENCY: inf cycles
L1I TOTAL     ACCESS:          0  HIT:          0  MISS:          0
L1I LOAD      ACCESS:          0  HIT:          0  MISS:          0
L1I RFO       ACCESS:          0  HIT:          0  MISS:          0
L1I PREFETCH  ACCESS:          0  HIT:          0  MISS:          0
L1I WRITEBACK ACCESS:          0  HIT:          0  MISS:          0
L1I PREFETCH  REQUESTED:          0  ISSUED:          0  USEFUL:          0  USELESS:          0
L1I AVERAGE MISS LATENCY: inf cycles
L2C TOTAL     ACCESS:          0  HIT:          0  MISS:          0
L2C LOAD      ACCESS:          0  HIT:          0  MISS:          0
L2C RFO       ACCESS:          0  HIT:          0  MISS:          0
L2C PREFETCH  ACCESS:          0  HIT:          0  MISS:          0
L2C WRITEBACK ACCESS:          0  HIT:          0  MISS:          0
L2C PREFETCH  REQUESTED:          0  ISSUED:          0  USEFUL:          0  USELESS:          0
L2C AVERAGE MISS LATENCY: inf cycles
LLC TOTAL     ACCESS:          0  HIT:          0  MISS:          0
LLC LOAD      ACCESS:          0  HIT:          0  MISS:          0
LLC RFO       ACCESS:          0  HIT:          0  MISS:          0
LLC PREFETCH  ACCESS:          0  HIT:          0  MISS:          0
LLC WRITEBACK ACCESS:          0  HIT:          0  MISS:          0
LLC PREFETCH  REQUESTED:          0  ISSUED:          0  USEFUL:          0  USELESS:          0
LLC AVERAGE MISS LATENCY: inf cycles
Major fault: 0 Minor fault: 12

DRAM Statistics
 CHANNEL 0
 RQ ROW_BUFFER_HIT:        612  ROW_BUFFER_MISS:         19
 DBUS_CONGESTED:          2
 WQ ROW_BUFFER_HIT:          0  ROW_BUFFER_MISS:          0  FULL:          0

 AVG_CONGESTED_CYCLE: 3

CPU 0 Branch Prediction Accuracy: 98.9233% MPKI: 0.736304 Average ROB Occupancy at Mispredict: 42.009

Branch types
NOT_BRANCH: 140422 93.1483%
BRANCH_DIRECT_JUMP: 101 0.0669979%
BRANCH_INDIRECT: 0 0%
BRANCH_CONDITIONAL: 10207 6.77077%
BRANCH_DIRECT_CALL: 0 0%
BRANCH_INDIRECT_CALL: 0 0%
BRANCH_RETURN: 1 0.000663346%
BRANCH_OTHER: 0 0%

